%chk=C:\Users\richardliu\Documents\aryl.chk
# hf/3-21g geom=connectivity

@left_connect@18
@right_connect@18
@fragment@linker_1

0 2
 C                  2.19515999    0.93333334    0.00000000
 C                  2.89269799    2.14108434    0.00000000
 C                  2.19504399    3.34959334   -0.00119900
 C                  0.10261799    2.14130934   -0.00068200
 H                  2.74466799   -0.01917966    0.00131500
 H                  2.74524399    4.30173634   -0.00125800
 H                 -0.99698601    2.14149234   -0.00086200
 C                  4.43269773    2.14119637    0.00088786
 C                  0.79999999    0.93333334    0.00000000
 C                  0.02970806   -0.40017698    0.00075287
 F                  4.88224296    3.23559916    0.65103525
 F                  4.88342986    2.15686336   -1.27154882
 F                  4.88241957    1.03122475    0.62395549
 F                  0.32582671   -1.09027480    1.12261684
 F                  0.38502014   -1.12571146   -1.08084458
 F                 -1.29697835   -0.15353048   -0.03885365
 C                  0.80021899    3.34951534   -0.00167800
 N                  0.06544786    4.62270384   -0.00323243
 H                  0.31077534    5.14815057   -0.81792266

 1 2 1.5 5 1.0 9 1.5
 2 3 1.5 8 1.0
 3 6 1.0 17 1.5
 4 7 1.0 9 1.5 17 1.5
 5
 6
 7
 8 11 1.0 12 1.0 13 1.0
 9 10 1.0
 10 14 1.0 15 1.0 16 1.0
 11
 12
 13
 14
 15
 16
 17 18 1.0
 18 19 1.0
 19

