%mem=1GB
%nprocshared=12
#p geom=connect 

pyrrolidine/tleucine/urea/aryl

0 1
C    1.804451   3.716826   2.717500
C    2.651839   3.011540   1.668252
C    1.783403   2.783838   0.439204
H    2.217589   4.734896   2.930779
H    1.817369   3.148273   3.680847
H    3.547228   3.629592   1.407396
H    3.029700   2.035366   2.064106
H    1.022974   3.598877   0.341806
C    1.011239   1.457222   0.563511
C   -0.397005   1.471660   0.344393
C    1.664523   0.295703   0.876749
C   -1.117310   0.266087   0.454419
C   -1.098982   2.668218   0.017514
C    0.957217  -0.936121   0.993779
H    2.752364   0.291096   1.044826
C   -2.530082   0.255593   0.239064
C   -0.435329  -0.946479   0.781471
C   -2.452278   2.658190  -0.188609
H   -0.525266   3.603961  -0.065547
C    1.615335  -2.157794   1.319003
C   -3.202352   1.450880  -0.082956
C   -3.260834  -0.967490   0.350622
C   -1.166126  -2.169511   0.893369
H   -2.988725   3.585720  -0.440769
C    0.915281  -3.329292   1.426346
H    2.703690  -2.137035   1.482467
C   -4.611574   1.415541  -0.293226
C   -2.578876  -2.180021   0.677902
C   -4.653334  -0.977880   0.138106
C   -0.493948  -3.364645   1.216108
H    1.429339  -4.269573   1.677919
C   -5.311505   0.243870  -0.186738
H   -5.125752   2.355916  -0.544221
C   -3.299228  -3.385527   0.788213
C   -5.360597  -2.209758   0.254868
C   -1.244137  -4.571816   1.322534
H   -6.399828   0.223087  -0.350419
C   -4.707395  -3.371181   0.568628
C   -2.597380  -4.581920   1.116016
H   -6.448366  -2.205225   0.086375
H   -0.707821  -5.499175   1.575671
H   -5.259332  -4.319401   0.657578
H   -3.171141  -5.517601   1.199520
C    0.368497   3.825594   2.171786
H    0.358085   4.476158   1.322341
H    0.022539   2.855354   1.882224
H   -0.272842   4.220844   2.931630
N    2.662462   2.756934  -0.738689
H    2.679937   3.662595  -1.162331
N    3.440702  -0.545054  -2.234537
H    4.352816  -0.591726  -1.827264
C    2.594676   0.604960  -1.986927
H    2.354650   1.090489  -2.932838
C    3.291626   1.613945  -1.085431
O    4.454343   1.382746  -0.663284
C    1.280672   0.188914  -1.299979
C    1.590438  -0.388315   0.093740
H    1.132204   0.223009   0.842876
H    1.204859  -1.384153   0.161099
H    2.649476  -0.404863   0.245608
C    0.571880  -0.880029  -2.152374
H    0.773594  -0.701820  -3.187967
H    0.932732  -1.849956  -1.880478
H   -0.483156  -0.831017  -1.980923
C    0.365693   1.419039  -1.154356
H    0.500675   1.851182  -0.184854
H    0.615616   2.140219  -1.904248
H   -0.654942   1.120414  -1.272785
C    2.125689  -2.592684  -2.448664
O    1.789723  -2.546467  -1.236822
N    1.644612  -3.689633  -3.300819
N    2.997572  -1.553488  -3.015048
H    3.519516  -0.931384  -3.354107
H    1.356621  -4.346310  -3.810953
C    7.152674  -4.579563  -2.100979
C    8.333774  -4.885754  -2.776605
C    9.411429  -4.000279  -2.734041
C    9.307478  -2.809461  -2.015234
C    8.126293  -2.503787  -1.338644
H    6.303398  -5.277331  -2.134037
H   10.342563  -4.241887  -3.266874
H    8.044641  -1.565043  -0.771879
C    8.448693  -6.200674  -3.569939
C    7.048937  -3.388662  -1.381629
C    5.745104  -3.050834  -0.634976
F    9.730841  -6.623102  -3.557584
F    8.055585  -5.992995  -4.844630
F    7.660394  -7.138614  -3.003059
F    5.510940  -3.987869   0.308227
F    4.718067  -3.027491  -1.510846
F    5.863336  -1.840992  -0.047775

1 2 1.0 4 1.0 5 1.0 44 1.0 
2 3 1.0 6 1.0 7 1.0 
3 8 1.0 9 1.0 48 1.0 
4 
5 
6 
7 
8 
9 10 1.5 11 2.0 
10 12 1.5 13 1.5 
11 14 1.5 15 1.0 
12 16 1.5 17 1.5 
13 18 2.0 19 1.0 
14 17 1.5 20 1.5 
15 
16 21 1.5 22 1.5 
17 23 1.5 
18 21 1.5 24 1.0 
19 
20 25 2.0 26 1.0 
21 27 1.5 
22 28 1.5 29 1.5 
23 28 1.5 30 1.5 
24 
25 30 1.5 31 1.0 
26 
27 32 2.0 33 1.0 
28 34 1.5 
29 32 1.5 35 1.5 
30 36 1.5 
31 
32 37 1.0 
33 
34 38 1.5 39 1.5 
35 38 2.0 40 1.0 
36 41 1.0 39 2.0 
37 
38 42 1.0 
39 43 1.0 
40 
41 
42 
43 
44 45 1.0 46 1.0 47 1.0 
45 
46 
47 
48 49 1.0 54 1.0 
49 
50 51 1.0 52 1.0 72 1.0 
51 
52 53 1.0 54 1.0 56 1.0 
53 
54 55 2.0 
55 
56 57 1.0 61 1.0 65 1.0 
57 58 1.0 59 1.0 60 1.0 
58 
59 
60 
61 62 1.0 63 1.0 64 1.0 
62 
63 
64 
65 66 1.0 67 1.0 68 1.0 
66 
67 
68 
69 70 2.0 71 1.0 72 1.0 
70 
71 74 1.0 78 1.0 
72 73 1.0 
73 
74 
75 76 1.5 80 1.0 84 1.5 
76 77 1.5 83 1.0 
77 78 1.5 81 1.0 
78 79 1.5 
79 82 1.0 84 1.5 
80 
81 
82 
83 86 1.0 87 1.0 88 1.0 
84 85 1.0 
85 89 1.0 90 1.0 91 1.0 
86 
87 
88 
89 
90 
91 


