%chk=C:\Users\richardliu\Documents\pyrrolidine.chk
# hf/3-21g geom=connectivity

@right_connect@47
@left_connect@47
@fragment_type@linker_2

0 2
 C                  1.79881776    5.49073382   -1.04491645
 C                  1.97566433    4.13389545   -0.37848551
 C                  0.64941964    3.39214815   -0.46494775
 H                  2.45655528    5.56947889   -1.94703578
 H                  2.09689776    6.31332990   -0.34782310
 H                  2.78534286    3.55103945   -0.88489956
 H                  2.28128601    4.26148543    0.69049032
 H                  0.09589946    3.68831803   -1.39119006
 C                 -0.24839021    3.75244297    0.73326972
 C                 -1.58678851    4.16829283    0.47417392
 C                  0.23064783    3.67404282    2.01326930
 C                 -2.42041059    4.50115172    1.55982146
 C                 -2.10775314    4.25788420   -0.84943533
 C                 -0.59374609    4.00582844    3.12756803
 H                  1.26534333    3.35216879    2.20684358
 C                 -3.76622595    4.92071820    1.32496352
 C                 -1.92031147    4.41935483    2.89608105
 C                 -3.39683717    4.65993777   -1.07440671
 H                 -1.44675259    3.99527308   -1.68954108
 C                 -0.11740424    3.93215997    4.46885329
 C                 -4.25905024    5.00168651    0.00779854
 C                 -4.61196946    5.25834550    2.42637258
 C                 -2.76594398    4.75730996    3.99748160
 H                 -3.79332480    4.72714097   -2.09907896
 C                 -0.92738276    4.25604087    5.52386076
 H                  0.92087745    3.60757755    4.63703438
 C                 -5.60454384    5.42265253   -0.20149243
 C                 -4.11178914    5.17676627    3.76262681
 C                 -5.93858619    5.67166268    2.19489363
 C                 -2.27287218    4.67703813    5.31458697
 H                 -0.55355332    4.19720202    6.55752589
 C                 -6.41480214    5.74570036    0.85358024
 H                 -5.97822151    5.48206916   -1.23518354
 C                 -4.94532086    5.50990465    4.84824359
 C                 -6.76306453    6.00318519    3.30921214
 C                 -3.13483876    5.01953947    6.39675093
 H                 -7.45315129    6.07007283    0.68539590
 C                 -6.28386310    5.92529674    4.58918162
 C                 -4.42405532    5.42121108    6.17180512
 H                 -7.79788365    6.32465009    3.11566198
 H                 -2.73802812    4.95328284    7.42137766
 H                 -6.92556432    6.18292074    5.44563784
 H                 -5.08489949    5.68424409    7.01190750
 C                  0.31907796    5.63140133   -1.44763568
 H                  0.08678391    4.91540464   -2.20808831
 H                 -0.30114794    5.45807456   -0.59313134
 H                  0.14346745    6.61846130   -1.82149868
 N                  0.93590649    1.95037473   -0.47565675
 H                  0.95574898    1.62147146   -1.41981189

 1 2 1.0 4 1.0 5 1.0 44 1.0
 2 3 1.0 6 1.0 7 1.0
 3 8 1.0 9 1.0 48 1.0
 4
 5
 6
 7
 8
 9 10 1.5 11 2.0
 10 12 1.5 13 1.5
 11 14 1.5 15 1.0
 12 16 1.5 17 1.5
 13 18 2.0 19 1.0
 14 17 1.5 20 1.5
 15
 16 21 1.5 22 1.5
 17 23 1.5
 18 21 1.5 24 1.0
 19
 20 25 2.0 26 1.0
 21 27 1.5
 22 28 1.5 29 1.5
 23 28 1.5 30 1.5
 24
 25 30 1.5 31 1.0
 26
 27 32 2.0 33 1.0
 28 34 1.5
 29 32 1.5 35 1.5
 30 36 1.5
 31
 32 37 1.0
 33
 34 38 1.5 39 1.5
 35 38 2.0 40 1.0
 36 41 1.0 39 2.0
 37
 38 42 1.0
 39 43 1.0
 40
 41
 42
 43
 44 45 1.0 46 1.0 47 1.0
 45
 46
 47
 48 49 1.0
 49

