%chk=C:\Users\richardliu\Documents\tleucine.chk
# hf/3-21g geom=connectivity

@left_connect@5
@right_connect@1
@fragment_type@linker_3

0 1
 N                  0.56805640   -1.53600001    0.08751605
 H                  1.56761640   -1.56566601    0.08751605
 C                 -0.11889760   -0.26018801    0.08751605
 H                 -0.74373060   -0.18338501   -0.80230695
 C                  0.87158140    0.89542299    0.08751605
 O                  2.10850740    0.66393799    0.08751605
 C                 -1.01424178   -0.11262870    1.33177689
 C                 -0.13622936   -0.09510130    2.59684091
 H                 -0.24980775    0.84404867    3.09683819
 H                 -0.43761263   -0.88626428    3.25115678
 H                  0.88877970   -0.23091018    2.32150041
 C                 -1.99363145   -1.29893170    1.40305854
 H                 -2.24909084   -1.61059517    0.41184394
 H                 -1.53238937   -2.11138965    1.92465976
 H                 -2.87989890   -0.99905940    1.92219879
 C                 -1.80820839    1.20370610    1.23969152
 H                 -1.28737555    1.97232867    1.77153032
 H                 -1.91095632    1.48718222    0.21305422
 H                 -2.77794523    1.06620328    1.67050869

 1 2 1.0 3 1.0
 2
 3 4 1.0 5 1.0 7 1.0
 4
 5 6 2.0
 6
 7 8 1.0 12 1.0 16 1.0
 8 9 1.0 10 1.0 11 1.0
 9
 10
 11
 12 13 1.0 14 1.0 15 1.0
 13
 14
 15
 16 17 1.0 18 1.0 19 1.0
 17
 18
 19

