%chk=C:\Users\richardliu\Documents\cat fragments\thiolink.chk
# hf/3-21g geom=connectivity

@left_connect@1
@right_connect@11
@chiral_atom@11
@rotatable_bond@1@2@5@8@11
@fragment_type@linker_2

0 1
 O                 -2.14130753    0.85477828   -2.18969230
 C                 -0.78060308    0.95476051   -1.76145528
 H                 -0.69456467    1.72490950   -1.02364234
 H                 -0.15948778    1.19277990   -2.59958567
 C                 -0.33300228   -0.38857502   -1.15589507
 H                 -0.95528409   -0.62748774   -0.31888487
 H                 -0.41730750   -1.15839228   -1.89425408
 C                  1.13155533   -0.28009306   -0.69231913
 H                  1.21592199    0.48995660    0.04579047
 H                  1.75388172   -0.04151764   -1.52939238
 C                  1.57900275   -1.62327714   -0.08630978
 H                  1.49467780   -2.39331855   -0.82443276
 C                  3.04354055   -1.51477561    0.37732416
 C                  4.69891945    0.08138500    1.39795563
 C                  4.70086181   -0.25915518   -1.04031334
 C                  6.12100625    0.28519532    0.89576874
 H                  4.65866203   -0.77822915    2.11362565
 H                  4.34356956    0.98662448    1.95086905
 C                  6.13343330    0.00718549   -0.60055053
 H                  4.37648677    0.49852874   -1.79720769
 H                  4.62187352   -1.26392513   -1.52634237
 H                  6.45901088    1.33252987    1.09943987
 H                  6.82836523   -0.39814468    1.42882112
 H                  6.55961883    0.87883978   -1.15763251
 H                  6.78096823   -0.87690386   -0.82743745
 N                  3.81089740   -0.19239262    0.19275257
 S                  3.75535209   -2.74484992    1.03599744

 1 2 1.0
 2 3 1.0 4 1.0 5 1.0
 3
 4
 5 6 1.0 7 1.0 8 1.0
 6
 7
 8 9 1.0 10 1.0 11 1.0
 9
 10
 11 12 1.0 13 1.0
 12
 13 26 1.0 27 2.0
 14 16 1.0 17 1.0 18 1.0 26 1.0
 15 19 1.0 20 1.0 21 1.0 26 1.0
 16 19 1.0 22 1.0 23 1.0
 17
 18
 19 24 1.0 25 1.0
 20
 21
 22
 23
 24
 25
 26
 27

