%mem=1GB
%nprocshared=12
#p geom=connect #p opt b3lyp m06-2x geom=connect scrf=(solvent=benzene) freq

00017

0 1
C   -0.223153  -1.972290   7.698870
O    0.130334  -1.581342   6.587574
N    0.541668  -1.897848   8.779228
H    0.162910  -2.192410   9.667642
C   -3.773783  -2.815595   7.626544
C   -4.842193  -3.317238   6.861618
C   -4.613060  -3.732447   5.534979
C   -3.303344  -3.728429   4.997216
C   -2.238282  -3.227770   5.776116
C   -2.470337  -2.782542   7.097873
H   -3.960733  -2.526824   8.650231
H   -5.438247  -4.142292   4.971197
H   -1.232929  -3.274406   5.380334
N   -1.425878  -2.462841   7.991035
H   -1.633643  -2.590931   8.968452
C   -6.190866  -3.516269   7.522078
C   -3.005282  -4.380652   3.698895
O   -1.918601  -4.311601   3.123512
F   -7.007712  -4.251008   6.768301
F   -6.015086  -4.139554   8.685425
F   -6.757475  -2.334443   7.750459
O   -4.024560  -5.140146   3.284529
C   -3.855492  -6.039580   2.209954
H   -3.869207  -5.478552   1.274755
H   -2.895401  -6.554930   2.270135
C   -5.004532  -7.053745   2.241696
H   -5.009478  -7.568034   1.280019
H   -5.961715  -6.533755   2.298466
C   -4.911759  -8.128635   3.343526
H   -3.961513  -8.660491   3.275886
H   -5.665154  -8.877376   3.089591
C   -5.165592  -7.641065   4.791507
H   -5.814572  -6.767099   4.768236
C   -5.795265  -8.780416   5.622206
O   -5.096672  -9.761097   5.892285
C   -7.726965  -9.696447   6.855935
C   -7.985273  -7.565104   5.777189
C   -9.023011  -9.057278   7.356472
H   -7.095027 -10.016777   7.686402
H   -7.938441 -10.570622   6.238221
C   -9.351044  -8.008990   6.302200
H   -8.039948  -7.307173   4.718349
H   -7.633127  -6.692249   6.328293
H   -9.825363  -9.782157   7.499396
H   -8.842847  -8.567506   8.314798
H   -9.922722  -8.469126   5.494729
H   -9.941485  -7.181077   6.696839
N   -7.076024  -8.681354   6.031114
C   -3.798356  -6.727874   6.633481
O   -4.779027  -6.495763   7.338150
N   -3.903919  -7.227706   5.401846
H   -3.066855  -7.429248   4.881510
C   -2.772593  -5.538121   9.278235
C   -2.169011  -4.921031  10.391279
C   -0.768737  -4.782253  10.437669
C    0.024498  -5.210725   9.353374
C   -0.592335  -5.801276   8.227633
C   -1.991502  -5.966933   8.177828
H   -3.848163  -5.600729   9.275478
H   -0.311054  -4.286849  11.283052
H    0.014127  -6.102515   7.384297
N   -2.528379  -6.484665   6.969993
H   -1.841420  -6.718760   6.271391
C   -3.033684  -4.282331  11.457500
C    1.478645  -4.946388   9.384467
O    2.132405  -4.873970  10.425643
F   -4.203937  -4.905543  11.580669
F   -2.422560  -4.278111  12.640734
F   -3.252781  -3.025549  11.076947
O    1.965071  -4.699226   8.156901
C    3.295270  -4.236950   7.982307
H    3.696452  -4.730482   7.096988
H    3.945388  -4.525661   8.809735
C    3.327666  -2.714602   7.763851
H    4.336101  -2.453274   7.441445
H    2.685011  -2.443929   6.925787
C    2.995749  -1.879992   9.018846
H    3.830581  -1.199504   9.191524
H    2.971828  -2.502616   9.912559
C    1.707628  -1.040640   8.907135
H    1.779175  -0.377744   8.043585
C    1.470965  -0.205640  10.173374
O    0.830652  -0.711681  11.102217
C    1.783845   1.906148  11.412044
C    2.735897   1.735381   9.210323
C    2.271173   3.292419  10.987754
H    0.743868   1.932285  11.742574
H    2.387316   1.518962  12.234637
C    3.264385   3.010760   9.868319
H    3.555040   1.129620   8.821074
H    2.072818   1.984474   8.380150
H    2.708957   3.857635  11.811534
H    1.433281   3.871523  10.596362
H    4.250994   2.821809  10.294438
H    3.359787   3.840816   9.167100
N    1.966496   1.045170  10.245513

1 2 2.0 3 1.0 14 1.0 
2 
3 4 1.0 
4 
5 6 1.5 10 1.5 11 1.0 
6 7 1.5 16 1.0 
7 8 1.5 12 1.0 
8 9 1.5 17 1.0 
9 10 1.5 13 1.0 
10 14 1.0 
11 
12 
13 
14 15 1.0 
15 
16 19 1.0 20 1.0 21 1.0 
17 18 2.0 22 1.0 
18 
19 
20 
21 
22 23 1.0 
23 24 1.0 25 1.0 26 1.0 
24 
25 
26 27 1.0 28 1.0 29 1.0 
27 
28 
29 30 1.0 31 1.0 32 1.0 
30 
31 
32 33 1.0 34 1.0 51 1.0 
33 
34 35 2.0 48 1.0 
35 
36 38 1.0 39 1.0 40 1.0 48 1.0 
37 41 1.0 42 1.0 43 1.0 48 1.0 
38 41 1.0 44 1.0 45 1.0 
39 
40 
41 46 1.0 47 1.0 
42 
43 
44 
45 
46 
47 
48 
49 50 2.0 51 1.0 62 1.0 
50 
51 52 1.0 
52 
53 54 1.5 58 1.5 59 1.0 
54 55 1.5 64 1.0 
55 56 1.5 60 1.0 
56 57 1.5 65 1.0 
57 58 1.5 61 1.0 
58 62 1.0 
59 
60 
61 
62 63 1.0 
63 
64 67 1.0 68 1.0 69 1.0 
65 66 2.0 70 1.0 
66 
67 
68 
69 
70 71 1.0 
71 72 1.0 73 1.0 74 1.0 
72 
73 
74 75 1.0 76 1.0 77 1.0 
75 
76 
77 78 1.0 79 1.0 80 1.0 
78 
79 
80 81 1.0 82 1.0 
81 
82 83 2.0 96 1.0 
83 
84 86 1.0 87 1.0 88 1.0 96 1.0 
85 89 1.0 90 1.0 91 1.0 96 1.0 
86 89 1.0 92 1.0 93 1.0 
87 
88 
89 94 1.0 95 1.0 
90 
91 
92 
93 
94 
95 
96 


