%mem=1GB
%nprocshared=12
#p geom=connect #p opt b3lyp m06-2x geom=connect scrf=(solvent=benzene) freq

00026

0 1
C   -1.471717  -0.218494   7.991212
O   -0.965528  -1.285702   7.644857
N   -0.923907   0.596135   8.898234
H   -1.445307   1.414997   9.165735
C   -4.602873   0.151262   6.072900
C   -5.260055  -0.239288   4.883780
C   -4.541033  -0.925599   3.879255
C   -3.169615  -1.220864   4.055709
C   -2.530029  -0.809937   5.241801
C   -3.239078  -0.148321   6.270848
H   -5.160185   0.676481   6.834678
H   -5.055086  -1.222524   2.976303
H   -1.475152  -1.017456   5.347149
N   -2.612269   0.262932   7.479684
H   -3.032295   1.050086   7.948215
C   -6.730559   0.088988   4.678750
C   -2.365876  -1.970590   3.056395
O   -1.182332  -2.267374   3.238085
F   -6.833429   1.253349   4.042633
F   -7.370077   0.180875   5.844149
F   -7.328920  -0.851194   3.948377
O   -3.051491  -2.307753   1.948710
C   -2.437608  -3.145403   0.978588
H   -1.891281  -3.945072   1.480343
H   -3.218348  -3.641568   0.401824
C   -1.521211  -2.354055   0.025727
H   -1.065330  -1.503341   0.531199
H   -2.145048  -1.919824  -0.756148
C   -0.432343  -3.241071  -0.615318
H   -0.237937  -2.868415  -1.622386
H   -0.830751  -4.245057  -0.767662
C    0.918748  -3.336032   0.141464
H    1.494136  -4.172863  -0.256682
C    1.709665  -2.019420  -0.004826
O    1.512428  -1.107542   0.805010
C    3.390174  -0.684790  -1.225865
C    2.900511  -2.897343  -2.030534
C    4.419054  -1.047373  -2.297909
H    3.873001  -0.347991  -0.306659
H    2.734806   0.115581  -1.573136
C    3.764985  -2.184427  -3.071425
H    2.004209  -3.317476  -2.488823
H    3.459646  -3.711468  -1.566064
H    4.686133  -0.200934  -2.931879
H    5.332738  -1.406919  -1.821952
H    3.128904  -1.773327  -3.856944
H    4.490181  -2.847315  -3.545192
N    2.592595  -1.891010  -1.014755
C    1.554054  -4.096937   2.394545
O    2.544266  -4.723153   2.016034
N    0.674697  -3.553962   1.559879
H   -0.064442  -3.002417   1.977507
C    2.258975  -5.759184   4.851490
C    2.874892  -6.304757   5.995028
C    3.138049  -5.470628   7.101073
C    2.805844  -4.096354   7.072529
C    2.173404  -3.564326   5.920636
C    1.913219  -4.389566   4.803625
H    2.048744  -6.408990   4.014354
H    3.610025  -5.894305   7.976503
H    1.896099  -2.519107   5.889479
N    1.263325  -3.838952   3.672431
H    0.520381  -3.173487   3.848889
C    3.232218  -7.781952   6.035439
C    3.144997  -3.258330   8.257462
O    3.468556  -3.732581   9.348818
F    4.240456  -8.011119   6.876017
F    2.172481  -8.477424   6.440825
F    3.590775  -8.215242   4.827566
O    3.114771  -1.940125   8.001353
C    3.458934  -1.019166   9.027562
H    4.541889  -1.020230   9.156521
H    3.036922  -1.330204   9.982135
C    2.978609   0.393847   8.654021
H    3.217481   1.096561   9.451145
H    3.564810   0.720082   7.794115
C    1.487145   0.486926   8.273996
H    1.275241  -0.311903   7.566487
H    1.359258   1.403548   7.697035
C    0.441257   0.522114   9.427019
H    0.565002   1.487949   9.911269
C    0.565720  -0.581628  10.501143
O    0.224369  -1.733055  10.226107
C    1.253196  -1.294601  12.758950
C    1.546222   1.018685  12.184059
C    1.623432  -0.526749  14.028029
H    2.057567  -1.972741  12.468625
H    0.350102  -1.890370  12.904157
C    2.258118   0.756050  13.511344
H    0.682173   1.667160  12.337852
H    2.218956   1.508951  11.480792
H    0.718704  -0.287694  14.589206
H    2.283557  -1.091826  14.687331
H    2.166970   1.586612  14.212523
H    3.321385   0.590022  13.330738
N    1.083920  -0.287135  11.712590

1 2 2.0 3 1.0 14 1.0 
2 
3 4 1.0 
4 
5 6 1.5 10 1.5 11 1.0 
6 7 1.5 16 1.0 
7 8 1.5 12 1.0 
8 9 1.5 17 1.0 
9 10 1.5 13 1.0 
10 14 1.0 
11 
12 
13 
14 15 1.0 
15 
16 19 1.0 20 1.0 21 1.0 
17 18 2.0 22 1.0 
18 
19 
20 
21 
22 23 1.0 
23 24 1.0 25 1.0 26 1.0 
24 
25 
26 27 1.0 28 1.0 29 1.0 
27 
28 
29 30 1.0 31 1.0 32 1.0 
30 
31 
32 33 1.0 34 1.0 51 1.0 
33 
34 35 2.0 48 1.0 
35 
36 38 1.0 39 1.0 40 1.0 48 1.0 
37 41 1.0 42 1.0 43 1.0 48 1.0 
38 41 1.0 44 1.0 45 1.0 
39 
40 
41 46 1.0 47 1.0 
42 
43 
44 
45 
46 
47 
48 
49 50 2.0 51 1.0 62 1.0 
50 
51 52 1.0 
52 
53 54 1.5 58 1.5 59 1.0 
54 55 1.5 64 1.0 
55 56 1.5 60 1.0 
56 57 1.5 65 1.0 
57 58 1.5 61 1.0 
58 62 1.0 
59 
60 
61 
62 63 1.0 
63 
64 67 1.0 68 1.0 69 1.0 
65 66 2.0 70 1.0 
66 
67 
68 
69 
70 71 1.0 
71 72 1.0 73 1.0 74 1.0 
72 
73 
74 75 1.0 76 1.0 77 1.0 
75 
76 
77 78 1.0 79 1.0 80 1.0 
78 
79 
80 81 1.0 82 1.0 
81 
82 83 2.0 96 1.0 
83 
84 86 1.0 87 1.0 88 1.0 96 1.0 
85 89 1.0 90 1.0 91 1.0 96 1.0 
86 89 1.0 92 1.0 93 1.0 
87 
88 
89 94 1.0 95 1.0 
90 
91 
92 
93 
94 
95 
96 


