%mem=1GB
%nprocshared=12
#p geom=connect #p opt b3lyp m06-2x geom=connect scrf=(solvent=benzene) freq

00006

0 1
C   -0.798346  -1.850743   7.845252
O   -0.476463  -2.635501   6.951543
N    0.086629  -1.124102   8.516865
H   -0.219921  -0.474508   9.227310
C   -4.296682  -2.571913   8.491819
C   -5.431833  -3.205655   7.942905
C   -5.509450  -3.416367   6.548441
C   -4.444409  -3.018798   5.708706
C   -3.318376  -2.386962   6.270967
C   -3.218413  -2.198023   7.666904
H   -4.237478  -2.442555   9.562716
H   -6.365372  -3.930248   6.135080
H   -2.504630  -2.097425   5.619750
N   -2.052188  -1.666065   8.269093
H   -2.186746  -1.120600   9.106071
C   -6.511079  -3.719134   8.876653
C   -4.417294  -3.334596   4.263907
O   -3.737386  -2.713593   3.444823
F   -7.342461  -4.560839   8.265256
F   -7.211637  -2.691798   9.349572
F   -5.942190  -4.354579   9.898908
O   -5.118536  -4.440983   3.971445
C   -4.915933  -5.091316   2.724892
H   -5.779713  -5.717860   2.501909
H   -4.855651  -4.354386   1.922252
C   -3.633000  -5.947324   2.766235
H   -2.803989  -5.381721   3.192271
H   -3.335619  -6.154227   1.737721
C   -3.780738  -7.298477   3.486594
H   -2.816670  -7.810297   3.477181
H   -4.444362  -7.923170   2.885811
C   -4.330449  -7.242957   4.926516
H   -5.295143  -6.739059   4.940983
C   -4.486165  -8.685300   5.451935
O   -3.490297  -9.266850   5.892036
C   -5.938654 -10.631656   5.895423
C   -6.931821  -8.682969   4.896595
C   -7.458056 -10.807462   5.901367
H   -5.514398 -10.790642   6.888524
H   -5.469151 -11.341316   5.212343
C   -7.950634  -9.822339   4.849766
H   -6.801177  -8.235720   3.909943
H   -7.264077  -7.903842   5.585231
H   -7.766381 -11.834026   5.699392
H   -7.854924 -10.527765   6.878573
H   -7.926958 -10.295362   3.866761
H   -8.971891  -9.484540   5.030590
N   -5.696712  -9.275538   5.408666
C   -3.743553  -6.210401   7.056485
O   -4.889197  -6.354090   7.485957
N   -3.419742  -6.498852   5.795594
H   -2.465020  -6.400979   5.491414
C   -3.584754  -6.158657  10.086214
C   -3.564173  -5.829655  11.455645
C   -2.579021  -4.945053  11.936954
C   -1.606721  -4.401607  11.067479
C   -1.639203  -4.747282   9.696161
C   -2.659207  -5.575463   9.186914
H   -4.352207  -6.835877   9.745883
H   -2.576762  -4.685777  12.986539
H   -0.909214  -4.333847   9.016665
N   -2.716336  -5.751632   7.777904
H   -1.871719  -5.525855   7.274448
C   -4.608319  -6.401407  12.400084
C   -0.614604  -3.439245  11.611520
O   -0.726078  -2.912567  12.720094
F   -4.096697  -7.453331  13.034186
F   -4.966761  -5.489645  13.302771
F   -5.701672  -6.787597  11.743713
O    0.402281  -3.198164  10.773894
C    1.372445  -2.228511  11.131744
H    1.698311  -2.382753  12.161805
H    0.925464  -1.235470  11.089396
C    2.590657  -2.321537  10.205668
H    3.292543  -1.530573  10.471801
H    3.112950  -3.255992  10.413310
C    2.284452  -2.261784   8.695363
H    1.763563  -3.173977   8.402136
H    3.236909  -2.313233   8.169023
C    1.500484  -1.027848   8.181923
H    1.555359  -1.034997   7.091924
C    2.015528   0.340262   8.650097
O    1.481260   0.860086   9.634996
C    3.569669   2.237961   8.379584
C    3.716499   0.426740   6.805003
C    4.484419   2.669506   7.232604
H    4.137211   2.121398   9.304255
H    2.782851   2.972827   8.559678
C    4.908147   1.359343   6.582956
H    3.037926   0.470236   5.951535
H    4.050154  -0.604001   6.921683
H    3.917626   3.266576   6.516459
H    5.330657   3.269927   7.568947
H    5.166630   1.472610   5.529313
H    5.784643   0.963213   7.098256
N    3.028253   0.937198   7.990633

1 2 2.0 3 1.0 14 1.0 
2 
3 4 1.0 
4 
5 6 1.5 10 1.5 11 1.0 
6 7 1.5 16 1.0 
7 8 1.5 12 1.0 
8 9 1.5 17 1.0 
9 10 1.5 13 1.0 
10 14 1.0 
11 
12 
13 
14 15 1.0 
15 
16 19 1.0 20 1.0 21 1.0 
17 18 2.0 22 1.0 
18 
19 
20 
21 
22 23 1.0 
23 24 1.0 25 1.0 26 1.0 
24 
25 
26 27 1.0 28 1.0 29 1.0 
27 
28 
29 30 1.0 31 1.0 32 1.0 
30 
31 
32 33 1.0 34 1.0 51 1.0 
33 
34 35 2.0 48 1.0 
35 
36 38 1.0 39 1.0 40 1.0 48 1.0 
37 41 1.0 42 1.0 43 1.0 48 1.0 
38 41 1.0 44 1.0 45 1.0 
39 
40 
41 46 1.0 47 1.0 
42 
43 
44 
45 
46 
47 
48 
49 50 2.0 51 1.0 62 1.0 
50 
51 52 1.0 
52 
53 54 1.5 58 1.5 59 1.0 
54 55 1.5 64 1.0 
55 56 1.5 60 1.0 
56 57 1.5 65 1.0 
57 58 1.5 61 1.0 
58 62 1.0 
59 
60 
61 
62 63 1.0 
63 
64 67 1.0 68 1.0 69 1.0 
65 66 2.0 70 1.0 
66 
67 
68 
69 
70 71 1.0 
71 72 1.0 73 1.0 74 1.0 
72 
73 
74 75 1.0 76 1.0 77 1.0 
75 
76 
77 78 1.0 79 1.0 80 1.0 
78 
79 
80 81 1.0 82 1.0 
81 
82 83 2.0 96 1.0 
83 
84 86 1.0 87 1.0 88 1.0 96 1.0 
85 89 1.0 90 1.0 91 1.0 96 1.0 
86 89 1.0 92 1.0 93 1.0 
87 
88 
89 94 1.0 95 1.0 
90 
91 
92 
93 
94 
95 
96 


