%mem=1GB
%nprocshared=12
#p geom=connect #p opt b3lyp m06-2x geom=connect scrf=(solvent=benzene) freq

00025

0 1
C    0.250403  -0.776852   7.928168
O   -0.105851  -1.916211   8.223533
N    1.158152  -0.081202   8.614291
H    1.365961   0.855306   8.307967
C   -1.641199   0.478441   5.036612
C   -2.388830   0.137050   3.893399
C   -2.504299  -1.217820   3.527593
C   -1.847855  -2.225917   4.268631
C   -1.139662  -1.877870   5.436697
C   -1.019792  -0.518667   5.815674
H   -1.537791   1.523005   5.292390
H   -3.039284  -1.469707   2.622901
H   -0.638191  -2.661164   5.987932
N   -0.217675  -0.077841   6.893806
H    0.057105   0.890595   6.852314
C   -2.993995   1.234643   3.034627
C   -1.774266  -3.610014   3.747057
O   -1.564435  -4.610151   4.432433
F   -2.014392   1.950457   2.486763
F   -3.740173   2.038803   3.789556
F   -3.755477   0.744086   2.057825
O   -1.797887  -3.593761   2.412861
C   -1.394733  -4.711588   1.654494
H   -0.592337  -5.270231   2.137679
H   -2.247320  -5.383318   1.549798
C   -0.942561  -4.197922   0.278729
H   -1.624987  -3.428236  -0.084085
H   -1.055469  -5.028313  -0.419064
C    0.526671  -3.728503   0.178242
H    0.746648  -3.626865  -0.883889
H    1.176416  -4.540481   0.505728
C    0.947990  -2.401386   0.872942
H    1.987409  -2.210500   0.601107
C    0.150322  -1.156543   0.465013
O   -0.794081  -0.804901   1.173779
C   -0.223475   0.725845  -1.083679
C    1.608900  -0.762219  -1.542502
C    0.636420   1.345520  -2.186077
H   -0.390089   1.429185  -0.265433
H   -1.198677   0.429786  -1.473619
C    1.430891   0.171161  -2.740980
H    1.633806  -1.802896  -1.864298
H    2.546458  -0.543058  -1.028976
H    0.045254   1.855999  -2.947435
H    1.319518   2.076577  -1.750733
H    0.847217  -0.331747  -3.513703
H    2.379387   0.473604  -3.186710
N    0.492132  -0.470753  -0.643675
C    1.826006  -3.231440   3.011642
O    2.769931  -3.819679   2.484681
N    0.937651  -2.521897   2.324287
H    0.186922  -2.030012   2.788140
C    1.477905  -5.709388   4.677324
C    1.753641  -6.844532   5.460764
C    2.442538  -6.689597   6.681522
C    2.862884  -5.412413   7.121539
C    2.572184  -4.277301   6.321508
C    1.887949  -4.426224   5.098505
H    0.933582  -5.837117   3.753847
H    2.638524  -7.562531   7.288301
H    2.870764  -3.289474   6.637875
N    1.566239  -3.292549   4.317183
H    0.931001  -2.622094   4.722198
C    1.278003  -8.209898   4.995920
C    3.548661  -5.297993   8.438848
O    3.607611  -6.221000   9.253596
F    1.354282  -8.304189   3.668896
F    2.010871  -9.186584   5.528989
F    0.009663  -8.376337   5.361822
O    4.070947  -4.080346   8.655424
C    4.371367  -3.659418   9.981673
H    5.433133  -3.792813  10.190308
H    3.822986  -4.257918  10.711418
C    3.953193  -2.187337  10.147909
H    3.858502  -1.963691  11.211014
H    4.738332  -1.535769   9.763102
C    2.641094  -1.885788   9.405132
H    1.945172  -2.713999   9.551947
H    2.877000  -1.878459   8.341905
C    1.942699  -0.553651   9.752937
H    2.726167   0.190600   9.896441
C    1.108575  -0.569378  11.051018
O    1.011961  -1.619914  11.688728
C   -0.349513   0.604797  12.659586
C    0.567390   1.883741  10.845406
C   -0.977194   1.999269  12.682875
H    0.283449   0.452644  13.535487
H   -1.111202  -0.176993  12.657013
C   -0.008436   2.852932  11.876982
H   -0.045194   1.903206   9.943365
H    1.588099   2.158375  10.576059
H   -1.946693   1.973714  12.182830
H   -1.134932   2.375741  13.694366
H   -0.485749   3.721972  11.422300
H    0.789478   3.214562  12.527560
N    0.482212   0.556710  11.457833

1 2 2.0 3 1.0 14 1.0 
2 
3 4 1.0 
4 
5 6 1.5 10 1.5 11 1.0 
6 7 1.5 16 1.0 
7 8 1.5 12 1.0 
8 9 1.5 17 1.0 
9 10 1.5 13 1.0 
10 14 1.0 
11 
12 
13 
14 15 1.0 
15 
16 19 1.0 20 1.0 21 1.0 
17 18 2.0 22 1.0 
18 
19 
20 
21 
22 23 1.0 
23 24 1.0 25 1.0 26 1.0 
24 
25 
26 27 1.0 28 1.0 29 1.0 
27 
28 
29 30 1.0 31 1.0 32 1.0 
30 
31 
32 33 1.0 34 1.0 51 1.0 
33 
34 35 2.0 48 1.0 
35 
36 38 1.0 39 1.0 40 1.0 48 1.0 
37 41 1.0 42 1.0 43 1.0 48 1.0 
38 41 1.0 44 1.0 45 1.0 
39 
40 
41 46 1.0 47 1.0 
42 
43 
44 
45 
46 
47 
48 
49 50 2.0 51 1.0 62 1.0 
50 
51 52 1.0 
52 
53 54 1.5 58 1.5 59 1.0 
54 55 1.5 64 1.0 
55 56 1.5 60 1.0 
56 57 1.5 65 1.0 
57 58 1.5 61 1.0 
58 62 1.0 
59 
60 
61 
62 63 1.0 
63 
64 67 1.0 68 1.0 69 1.0 
65 66 2.0 70 1.0 
66 
67 
68 
69 
70 71 1.0 
71 72 1.0 73 1.0 74 1.0 
72 
73 
74 75 1.0 76 1.0 77 1.0 
75 
76 
77 78 1.0 79 1.0 80 1.0 
78 
79 
80 81 1.0 82 1.0 
81 
82 83 2.0 96 1.0 
83 
84 86 1.0 87 1.0 88 1.0 96 1.0 
85 89 1.0 90 1.0 91 1.0 96 1.0 
86 89 1.0 92 1.0 93 1.0 
87 
88 
89 94 1.0 95 1.0 
90 
91 
92 
93 
94 
95 
96 


