%mem=1GB
%nprocshared=12
#p geom=connect #p opt b3lyp m06-2x geom=connect scrf=(solvent=benzene) freq

00021

0 1
C    0.153374  -1.506867   7.894166
O    0.268202  -2.684310   7.558213
N    0.971142  -0.921387   8.759612
H    0.850133   0.056634   8.970802
C   -2.574494   0.189280   6.080062
C   -3.713953   0.013803   5.266453
C   -4.204483  -1.287442   5.030584
C   -3.562450  -2.413870   5.597235
C   -2.423836  -2.219308   6.409137
C   -1.914359  -0.920845   6.645753
H   -2.210729   1.189752   6.263210
H   -5.081303  -1.404140   4.409879
H   -1.956856  -3.087256   6.850625
N   -0.785591  -0.660089   7.463838
H   -0.684762   0.298350   7.757094
C   -4.423233   1.215969   4.663249
C   -4.046453  -3.799143   5.363358
O   -3.474468  -4.795305   5.814670
F   -3.595242   2.252009   4.533898
F   -4.910892   0.919406   3.459302
F   -5.431024   1.571528   5.456279
O   -5.173196  -3.846583   4.621043
C   -5.755265  -5.098182   4.292737
H   -6.317678  -4.997297   3.364468
H   -4.965368  -5.813416   4.084854
C   -6.690753  -5.574491   5.416817
H   -7.661646  -5.097190   5.281215
H   -6.340671  -5.211314   6.382964
C   -6.881828  -7.104868   5.495114
H   -7.346910  -7.450655   4.571345
H   -7.616352  -7.303955   6.276676
C   -5.614716  -7.949271   5.806107
H   -5.938176  -8.832482   6.359606
C   -4.838307  -8.485327   4.593333
O   -3.807834  -7.903288   4.241383
C   -4.619754 -10.143474   2.777614
C   -6.475788 -10.365636   4.290296
C   -5.294707 -11.491399   2.519557
H   -4.758004  -9.472755   1.928084
H   -3.546835 -10.259993   2.941370
C   -6.682918 -11.333551   3.124724
H   -7.364676  -9.755535   4.450717
H   -6.275496 -10.919066   5.209206
H   -5.320252 -11.756422   1.461801
H   -4.753432 -12.279097   3.046031
H   -7.120630 -12.283103   3.435484
H   -7.352891 -10.884526   2.389752
N   -5.294198  -9.575056   3.943178
C   -4.761141  -7.147569   7.992573
O   -5.606179  -7.752763   8.651475
N   -4.702190  -7.216861   6.670273
H   -3.972148  -6.709420   6.183414
C   -3.805279  -7.050040  10.872292
C   -3.496324  -6.790560  12.220603
C   -2.901284  -5.561450  12.565601
C   -2.587929  -4.601293  11.575994
C   -2.896917  -4.880549  10.220777
C   -3.530027  -6.093710   9.864737
H   -4.257676  -8.001844  10.638863
H   -2.677486  -5.361448  13.604109
H   -2.667686  -4.152297   9.454397
N   -3.837001  -6.320400   8.495886
H   -3.315238  -5.775346   7.823180
C   -3.826023  -7.826581  13.283454
C   -1.952124  -3.327206  12.013133
O   -1.848776  -3.004492  13.198822
F   -3.549307  -9.052021  12.839975
F   -3.129537  -7.620636  14.400681
F   -5.123438  -7.759955  13.572086
O   -1.486506  -2.575585  10.997939
C   -0.836340  -1.339552  11.276281
H   -1.370752  -0.804373  12.062974
H   -0.914931  -0.702817  10.398412
C    0.639090  -1.535889  11.688999
H    1.091410  -0.562791  11.878547
H    0.657307  -2.047490  12.651658
C    1.503579  -2.350430  10.698792
H    0.952853  -3.231863  10.368287
H    2.358180  -2.750424  11.246831
C    2.048855  -1.588938   9.466473
H    2.473225  -2.356275   8.816615
C    3.201934  -0.603846   9.708909
O    3.487243  -0.286324  10.864298
C    4.935013   0.896935   8.791709
C    3.625549  -0.384157   7.235698
C    5.251766   1.382908   7.376681
H    4.656465   1.725323   9.445587
H    5.801020   0.399695   9.231789
C    4.801839   0.236061   6.482510
H    3.560931  -1.455411   7.040948
H    2.693176   0.078175   6.909831
H    6.303621   1.638476   7.242413
H    4.662508   2.273860   7.154079
H    5.606787  -0.495161   6.392709
H    4.536013   0.561733   5.475993
N    3.852308  -0.075030   8.649515

1 2 2.0 3 1.0 14 1.0 
2 
3 4 1.0 
4 
5 6 1.5 10 1.5 11 1.0 
6 7 1.5 16 1.0 
7 8 1.5 12 1.0 
8 9 1.5 17 1.0 
9 10 1.5 13 1.0 
10 14 1.0 
11 
12 
13 
14 15 1.0 
15 
16 19 1.0 20 1.0 21 1.0 
17 18 2.0 22 1.0 
18 
19 
20 
21 
22 23 1.0 
23 24 1.0 25 1.0 26 1.0 
24 
25 
26 27 1.0 28 1.0 29 1.0 
27 
28 
29 30 1.0 31 1.0 32 1.0 
30 
31 
32 33 1.0 34 1.0 51 1.0 
33 
34 35 2.0 48 1.0 
35 
36 38 1.0 39 1.0 40 1.0 48 1.0 
37 41 1.0 42 1.0 43 1.0 48 1.0 
38 41 1.0 44 1.0 45 1.0 
39 
40 
41 46 1.0 47 1.0 
42 
43 
44 
45 
46 
47 
48 
49 50 2.0 51 1.0 62 1.0 
50 
51 52 1.0 
52 
53 54 1.5 58 1.5 59 1.0 
54 55 1.5 64 1.0 
55 56 1.5 60 1.0 
56 57 1.5 65 1.0 
57 58 1.5 61 1.0 
58 62 1.0 
59 
60 
61 
62 63 1.0 
63 
64 67 1.0 68 1.0 69 1.0 
65 66 2.0 70 1.0 
66 
67 
68 
69 
70 71 1.0 
71 72 1.0 73 1.0 74 1.0 
72 
73 
74 75 1.0 76 1.0 77 1.0 
75 
76 
77 78 1.0 79 1.0 80 1.0 
78 
79 
80 81 1.0 82 1.0 
81 
82 83 2.0 96 1.0 
83 
84 86 1.0 87 1.0 88 1.0 96 1.0 
85 89 1.0 90 1.0 91 1.0 96 1.0 
86 89 1.0 92 1.0 93 1.0 
87 
88 
89 94 1.0 95 1.0 
90 
91 
92 
93 
94 
95 
96 


