%mem=1GB
%nprocshared=12
#p geom=connect #p opt b3lyp m06-2x geom=connect scrf=(solvent=benzene) freq

00014

0 1
C   -1.207764  -2.098518   7.368557
O   -1.338949  -3.273588   7.019339
N   -0.055700  -1.565709   7.752389
H   -0.003121  -0.578535   7.959075
C   -4.434232  -1.381803   8.411695
C   -5.747777  -1.890588   8.371025
C   -6.216810  -2.505044   7.193970
C   -5.369145  -2.658596   6.072247
C   -4.043557  -2.184740   6.135203
C   -3.569417  -1.579884   7.319633
H   -4.062644  -0.938712   9.324207
H   -7.220404  -2.906548   7.183871
H   -3.375273  -2.350018   5.299754
N   -2.215449  -1.232509   7.471235
H   -2.018853  -0.335345   7.887103
C   -6.610284  -1.895559   9.617734
C   -5.814886  -3.433068   4.894092
O   -5.408461  -3.264205   3.744898
F   -7.511020  -0.919296   9.554044
F   -7.237867  -3.065733   9.712223
F   -5.871242  -1.739923  10.714999
O   -6.639389  -4.403917   5.280889
C   -6.956005  -5.496324   4.445685
H   -7.870237  -5.257738   3.901555
H   -6.180453  -5.712044   3.709793
C   -7.183469  -6.687513   5.389346
H   -8.009487  -7.275673   4.988307
H   -7.542960  -6.331925   6.356608
C   -5.999791  -7.655685   5.605624
H   -5.939478  -8.295640   4.725151
H   -6.277552  -8.329761   6.417089
C   -4.583758  -7.097722   5.910821
H   -4.060050  -7.867088   6.481121
C   -3.689919  -6.810274   4.697201
O   -3.554839  -5.639922   4.330475
C   -2.203963  -7.630679   2.906090
C   -3.096493  -9.239836   4.453758
C   -1.485768  -8.962814   2.685651
H   -1.493536  -6.815190   3.054164
H   -2.826884  -7.379807   2.046019
C   -2.415568  -9.993609   3.310824
H   -4.105488  -9.616771   4.618865
H   -2.532650  -9.369261   5.379013
H   -1.276791  -9.162086   1.633814
H   -0.533420  -8.958319   3.218210
H   -3.163257 -10.302709   2.578629
H   -1.891275 -10.889043   3.647160
N   -3.064763  -7.827533   4.071040
C   -4.703606  -5.895794   8.070598
O   -5.153563  -6.830674   8.731130
N   -4.585275  -5.916188   6.753348
H   -4.212090  -5.101727   6.286015
C   -4.962554  -4.760292  10.939873
C   -4.761077  -4.299726  12.257976
C   -3.604269  -3.546249  12.567793
C   -2.658879  -3.236312  11.563405
C   -2.873971  -3.715856  10.254367
C   -4.020040  -4.459395   9.934623
H   -5.868368  -5.301998  10.708282
H   -3.457916  -3.176590  13.572795
H   -2.160155  -3.504526   9.475611
N   -4.216373  -4.763916   8.573125
H   -3.757688  -4.147187   7.917656
C   -5.829898  -4.570197  13.300254
C   -1.470051  -2.400043  11.868817
O   -1.053985  -2.192555  13.009189
F   -6.929692  -3.894283  12.975043
F   -6.118024  -5.869652  13.327324
F   -5.444426  -4.195540  14.519046
O   -0.918094  -1.887075  10.753915
C    0.312737  -1.185136  10.792714
H    0.465687  -0.693848  11.754826
H    0.282014  -0.387409  10.051629
C    1.472233  -2.148864  10.488271
H    2.401133  -1.579786  10.442563
H    1.589657  -2.821035  11.339018
C    1.313150  -3.010871   9.212255
H    0.452317  -3.671249   9.323821
H    2.168935  -3.684111   9.168224
C    1.214900  -2.260113   7.861319
H    1.236687  -3.001623   7.061117
C    2.333679  -1.245515   7.591000
O    2.142906  -0.067232   7.910006
C    4.599358  -0.749464   6.746850
C    3.814234  -3.018062   6.607378
C    5.581415  -1.547854   5.888272
H    4.268576   0.156858   6.236287
H    5.062068  -0.453076   7.689601
C    5.302996  -2.998626   6.257476
H    3.607410  -3.759936   7.378697
H    3.221555  -3.269357   5.726253
H    6.620173  -1.259348   6.054076
H    5.357569  -1.389607   4.832119
H    5.889739  -3.270711   7.136337
H    5.559506  -3.696181   5.459085
N    3.488495  -1.656057   7.030168

1 2 2.0 3 1.0 14 1.0 
2 
3 4 1.0 
4 
5 6 1.5 10 1.5 11 1.0 
6 7 1.5 16 1.0 
7 8 1.5 12 1.0 
8 9 1.5 17 1.0 
9 10 1.5 13 1.0 
10 14 1.0 
11 
12 
13 
14 15 1.0 
15 
16 19 1.0 20 1.0 21 1.0 
17 18 2.0 22 1.0 
18 
19 
20 
21 
22 23 1.0 
23 24 1.0 25 1.0 26 1.0 
24 
25 
26 27 1.0 28 1.0 29 1.0 
27 
28 
29 30 1.0 31 1.0 32 1.0 
30 
31 
32 33 1.0 34 1.0 51 1.0 
33 
34 35 2.0 48 1.0 
35 
36 38 1.0 39 1.0 40 1.0 48 1.0 
37 41 1.0 42 1.0 43 1.0 48 1.0 
38 41 1.0 44 1.0 45 1.0 
39 
40 
41 46 1.0 47 1.0 
42 
43 
44 
45 
46 
47 
48 
49 50 2.0 51 1.0 62 1.0 
50 
51 52 1.0 
52 
53 54 1.5 58 1.5 59 1.0 
54 55 1.5 64 1.0 
55 56 1.5 60 1.0 
56 57 1.5 65 1.0 
57 58 1.5 61 1.0 
58 62 1.0 
59 
60 
61 
62 63 1.0 
63 
64 67 1.0 68 1.0 69 1.0 
65 66 2.0 70 1.0 
66 
67 
68 
69 
70 71 1.0 
71 72 1.0 73 1.0 74 1.0 
72 
73 
74 75 1.0 76 1.0 77 1.0 
75 
76 
77 78 1.0 79 1.0 80 1.0 
78 
79 
80 81 1.0 82 1.0 
81 
82 83 2.0 96 1.0 
83 
84 86 1.0 87 1.0 88 1.0 96 1.0 
85 89 1.0 90 1.0 91 1.0 96 1.0 
86 89 1.0 92 1.0 93 1.0 
87 
88 
89 94 1.0 95 1.0 
90 
91 
92 
93 
94 
95 
96 


