%mem=1GB
%nprocshared=12
#p geom=connect #p opt b3lyp m06-2x geom=connect scrf=(solvent=benzene) freq

00010

0 1
C   -0.984952  -2.487305   7.997939
O   -0.673136  -3.304707   7.128024
N   -0.106792  -1.710273   8.622166
H   -0.428098  -1.046598   9.312861
C   -4.487275  -3.223175   8.496442
C   -5.612414  -3.762450   7.836060
C   -5.676982  -3.728220   6.425726
C   -4.612740  -3.178625   5.674308
C   -3.486613  -2.665196   6.347314
C   -3.401124  -2.721590   7.754485
H   -4.433074  -3.273291   9.574142
H   -6.532915  -4.158520   5.925839
H   -2.660126  -2.274931   5.768249
N   -2.233634  -2.310595   8.436004
H   -2.368585  -1.788125   9.287692
C   -6.706062  -4.437776   8.642423
C   -4.578485  -3.221362   4.193854
O   -3.847826  -2.498366   3.514511
F   -6.197328  -5.004963   9.735361
F   -7.317599  -5.380639   7.926721
F   -7.604275  -3.528961   9.011317
O   -5.323281  -4.225106   3.691966
C   -5.007263  -4.759178   2.412086
H   -5.930017  -4.874262   1.843188
H   -4.382052  -4.080736   1.829974
C   -4.303802  -6.127481   2.540499
H   -3.832305  -6.345727   1.581718
H   -5.049169  -6.911136   2.672437
C   -3.237306  -6.214205   3.656659
H   -2.694545  -5.270399   3.712763
H   -2.482517  -6.948592   3.369299
C   -3.839786  -6.600883   5.029289
H   -4.779523  -6.081311   5.179766
C   -4.048745  -8.126886   5.121951
O   -3.052701  -8.854508   5.138906
C   -5.577345 -10.055801   5.298141
C   -6.545855  -7.857662   5.229433
C   -7.054774 -10.168487   5.676972
H   -4.939591 -10.541624   6.039016
H   -5.387596 -10.526203   4.332137
C   -7.674479  -8.884845   5.142656
H   -6.623143  -7.133144   4.418177
H   -6.597495  -7.316737   6.175848
H   -7.527306 -11.066945   5.278066
H   -7.152313 -10.196057   6.763451
H   -7.963184  -9.025130   4.099821
H   -8.564664  -8.581829   5.695426
N   -5.300266  -8.625189   5.188708
C   -3.284760  -6.267541   7.393485
O   -4.376654  -6.695984   7.766263
N   -2.969515  -6.138690   6.104376
H   -2.060595  -5.785473   5.850364
C   -3.378391  -6.108323  10.462031
C   -3.388584  -5.740190  11.823359
C   -2.341637  -4.945505  12.335388
C   -1.269090  -4.549443  11.506168
C   -1.248935  -4.978173  10.159785
C   -2.326837  -5.692072   9.610682
H   -4.217740  -6.677586  10.097183
H   -2.381023  -4.620679  13.365767
H   -0.434575  -4.693960   9.509764
N   -2.305711  -5.862809   8.202056
H   -1.483269  -5.498919   7.740846
C   -4.562739  -6.124276  12.707409
C   -0.231035  -3.622829  12.027573
O   -0.252560  -3.132581  13.157586
F   -4.163985  -6.317275  13.963777
F   -5.149272  -7.240486  12.277596
F   -5.455866  -5.137939  12.688653
O    0.695720  -3.342113  11.106828
C    1.603490  -2.278383  11.300138
H    2.046372  -2.323228  12.296371
H    1.068759  -1.331537  11.226547
C    2.705024  -2.371295  10.236372
H    3.337222  -1.485421  10.304371
H    3.354192  -3.209737  10.490920
C    2.219868  -2.568691   8.781315
H    1.761922  -3.553615   8.682507
H    3.108016  -2.622643   8.152742
C    1.268474  -1.498005   8.192521
H    1.273890  -1.621319   7.108024
C    1.634728  -0.034334   8.476798
O    1.078181   0.534505   9.421691
C    2.938986   1.983556   7.914766
C    3.246891   0.026236   6.552681
C    3.751377   2.378429   6.680861
H    2.076485   2.638788   8.050143
H    3.550580   2.044207   8.816421
C    4.306819   1.058267   6.164476
H    3.708954  -0.935880   6.771777
H    2.538099  -0.114369   5.735005
H    4.530233   3.109100   6.902796
H    3.090104   2.815579   5.931040
H    5.243685   0.831635   6.675959
H    4.510117   1.073937   5.092920
N    2.544566   0.591956   7.704403

1 2 2.0 3 1.0 14 1.0 
2 
3 4 1.0 
4 
5 6 1.5 10 1.5 11 1.0 
6 7 1.5 16 1.0 
7 8 1.5 12 1.0 
8 9 1.5 17 1.0 
9 10 1.5 13 1.0 
10 14 1.0 
11 
12 
13 
14 15 1.0 
15 
16 19 1.0 20 1.0 21 1.0 
17 18 2.0 22 1.0 
18 
19 
20 
21 
22 23 1.0 
23 24 1.0 25 1.0 26 1.0 
24 
25 
26 27 1.0 28 1.0 29 1.0 
27 
28 
29 30 1.0 31 1.0 32 1.0 
30 
31 
32 33 1.0 34 1.0 51 1.0 
33 
34 35 2.0 48 1.0 
35 
36 38 1.0 39 1.0 40 1.0 48 1.0 
37 41 1.0 42 1.0 43 1.0 48 1.0 
38 41 1.0 44 1.0 45 1.0 
39 
40 
41 46 1.0 47 1.0 
42 
43 
44 
45 
46 
47 
48 
49 50 2.0 51 1.0 62 1.0 
50 
51 52 1.0 
52 
53 54 1.5 58 1.5 59 1.0 
54 55 1.5 64 1.0 
55 56 1.5 60 1.0 
56 57 1.5 65 1.0 
57 58 1.5 61 1.0 
58 62 1.0 
59 
60 
61 
62 63 1.0 
63 
64 67 1.0 68 1.0 69 1.0 
65 66 2.0 70 1.0 
66 
67 
68 
69 
70 71 1.0 
71 72 1.0 73 1.0 74 1.0 
72 
73 
74 75 1.0 76 1.0 77 1.0 
75 
76 
77 78 1.0 79 1.0 80 1.0 
78 
79 
80 81 1.0 82 1.0 
81 
82 83 2.0 96 1.0 
83 
84 86 1.0 87 1.0 88 1.0 96 1.0 
85 89 1.0 90 1.0 91 1.0 96 1.0 
86 89 1.0 92 1.0 93 1.0 
87 
88 
89 94 1.0 95 1.0 
90 
91 
92 
93 
94 
95 
96 


