%mem=1GB
%nprocshared=12
#p geom=connect #p opt b3lyp m06-2x geom=connect scrf=(solvent=benzene) freq

00004

0 1
C   -1.806693  -2.932611   7.182393
O   -2.066187  -4.092056   6.874194
N   -0.565956  -2.496604   7.357858
H   -0.395816  -1.523837   7.569627
C   -4.861020  -1.164891   8.120886
C   -6.266463  -1.246773   8.177486
C   -6.936645  -2.213158   7.399178
C   -6.214633  -3.100363   6.570124
C   -4.802584  -2.998661   6.518655
C   -4.120362  -2.059456   7.325934
H   -4.353549  -0.438941   8.739311
H   -8.013729  -2.283633   7.460623
H   -4.240990  -3.671143   5.886090
N   -2.710446  -1.977632   7.412315
H   -2.348562  -1.099397   7.748263
C   -7.035357  -0.334831   9.116586
C   -6.947546  -4.160357   5.828073
O   -8.173646  -4.272091   5.831813
F   -7.327135   0.804102   8.494804
F   -6.301984  -0.063781  10.194482
F   -8.165185  -0.911591   9.519753
O   -6.118259  -5.020879   5.220812
C   -6.600914  -6.181716   4.563414
H   -7.602049  -6.006261   4.166400
H   -5.967143  -6.392965   3.702013
C   -6.612721  -7.388412   5.518078
H   -7.291725  -8.120760   5.080054
H   -7.074983  -7.124691   6.469850
C   -5.261056  -8.117941   5.731641
H   -4.887300  -8.463967   4.765917
H   -5.492930  -9.037914   6.269866
C   -4.122579  -7.415029   6.524634
H   -3.658173  -8.167671   7.159978
C   -3.092682  -6.779478   5.566954
O   -3.484737  -5.978166   4.716574
C   -0.758392  -6.512349   4.816362
C   -1.190687  -8.078961   6.584165
C    0.578919  -6.952342   5.410813
H   -0.873138  -6.891614   3.799840
H   -0.842433  -5.424979   4.778522
C    0.257582  -8.254006   6.126799
H   -1.709342  -9.038478   6.576183
H   -1.223926  -7.676160   7.597427
H    1.365655  -7.056589   4.662648
H    0.909143  -6.220234   6.144678
H    0.939081  -8.463294   6.952330
H    0.323220  -9.084788   5.422508
N   -1.788181  -7.111659   5.663265
C   -4.123768  -5.940865   8.490384
O   -3.098300  -6.428895   8.965455
N   -4.682384  -6.369885   7.364429
H   -5.460988  -5.867156   6.971934
C   -5.420313  -3.534954  10.928063
C   -5.075037  -2.562705  11.891768
C   -3.727545  -2.159461  12.019155
C   -2.723269  -2.724434  11.200608
C   -3.081560  -3.732544  10.277756
C   -4.429057  -4.117552  10.114431
H   -6.456656  -3.813771  10.805338
H   -3.473484  -1.389829  12.734522
H   -2.327594  -4.165257   9.637339
N   -4.835355  -4.966650   9.059606
H   -5.751065  -4.789228   8.679824
C   -6.150523  -1.929216  12.758620
C   -1.331802  -2.204107  11.261660
O   -0.987274  -1.257363  11.970678
F   -6.228111  -2.589169  13.911001
F   -5.862216  -0.654395  13.014028
F   -7.338897  -1.976126  12.159009
O   -0.509804  -2.851645  10.425863
C    0.799731  -2.374461  10.188736
H    1.274171  -2.067110  11.122097
H    0.753675  -1.493991   9.547836
C    1.631412  -3.486743   9.535601
H    2.611891  -3.086145   9.276467
H    1.821843  -4.255157  10.285563
C    0.996857  -4.168879   8.302575
H    0.112330  -4.728563   8.610996
H    1.697589  -4.932480   7.967992
C    0.639993  -3.265106   7.097520
H    0.411923  -3.912584   6.250923
C    1.732868  -2.292254   6.637117
O    1.702164  -1.133935   7.065638
C    3.745568  -1.837454   5.284111
C    2.821711  -4.055590   5.220685
C    4.408844  -2.601263   4.137619
H    3.355309  -0.875018   4.947971
H    4.459316  -1.647674   6.087350
C    4.154657  -4.064660   4.471302
H    2.811124  -4.830988   5.985610
H    1.996883  -4.240020   4.530389
H    3.916941  -2.349737   3.196675
H    5.468952  -2.367872   4.030692
H    4.943187  -4.430599   5.130837
H    4.138875  -4.704475   3.588012
N    2.690391  -2.714001   5.787691

1 2 2.0 3 1.0 14 1.0 
2 
3 4 1.0 
4 
5 6 1.5 10 1.5 11 1.0 
6 7 1.5 16 1.0 
7 8 1.5 12 1.0 
8 9 1.5 17 1.0 
9 10 1.5 13 1.0 
10 14 1.0 
11 
12 
13 
14 15 1.0 
15 
16 19 1.0 20 1.0 21 1.0 
17 18 2.0 22 1.0 
18 
19 
20 
21 
22 23 1.0 
23 24 1.0 25 1.0 26 1.0 
24 
25 
26 27 1.0 28 1.0 29 1.0 
27 
28 
29 30 1.0 31 1.0 32 1.0 
30 
31 
32 33 1.0 34 1.0 51 1.0 
33 
34 35 2.0 48 1.0 
35 
36 38 1.0 39 1.0 40 1.0 48 1.0 
37 41 1.0 42 1.0 43 1.0 48 1.0 
38 41 1.0 44 1.0 45 1.0 
39 
40 
41 46 1.0 47 1.0 
42 
43 
44 
45 
46 
47 
48 
49 50 2.0 51 1.0 62 1.0 
50 
51 52 1.0 
52 
53 54 1.5 58 1.5 59 1.0 
54 55 1.5 64 1.0 
55 56 1.5 60 1.0 
56 57 1.5 65 1.0 
57 58 1.5 61 1.0 
58 62 1.0 
59 
60 
61 
62 63 1.0 
63 
64 67 1.0 68 1.0 69 1.0 
65 66 2.0 70 1.0 
66 
67 
68 
69 
70 71 1.0 
71 72 1.0 73 1.0 74 1.0 
72 
73 
74 75 1.0 76 1.0 77 1.0 
75 
76 
77 78 1.0 79 1.0 80 1.0 
78 
79 
80 81 1.0 82 1.0 
81 
82 83 2.0 96 1.0 
83 
84 86 1.0 87 1.0 88 1.0 96 1.0 
85 89 1.0 90 1.0 91 1.0 96 1.0 
86 89 1.0 92 1.0 93 1.0 
87 
88 
89 94 1.0 95 1.0 
90 
91 
92 
93 
94 
95 
96 


