%mem=1GB
%nprocshared=12
#p geom=connect #p opt b3lyp m06-2x geom=connect scrf=(solvent=benzene) freq

00027

0 1
C   -1.004673  -0.749914   8.126381
O   -0.275399  -1.738547   8.169577
N   -0.890673   0.298932   8.942577
H   -1.589562   1.019944   8.869571
C   -1.964192  -2.637836   5.851778
C   -1.995326  -3.237619   4.575735
C   -2.126151  -2.425107   3.427281
C   -2.206847  -1.017405   3.550055
C   -2.194790  -0.435912   4.835200
C   -2.048693  -1.234982   5.982923
H   -1.853497  -3.265453   6.724430
H   -2.130744  -2.889711   2.451350
H   -2.249438   0.639927   4.936437
N   -1.983266  -0.583463   7.233743
H   -2.502436   0.277408   7.300659
C   -1.854027  -4.744825   4.464339
C   -2.249822  -0.116478   2.372790
O   -2.558297   1.074664   2.449714
F   -1.541875  -5.127517   3.230234
F   -3.001858  -5.320597   4.811342
F   -0.899068  -5.169930   5.287124
O   -1.841604  -0.708033   1.235776
C   -1.604637   0.088842   0.081156
H   -1.681885  -0.533129  -0.810823
H   -2.378974   0.851984  -0.013748
C   -0.211589   0.746696   0.156600
H   -0.013953   1.115057   1.163498
H   -0.222426   1.636650  -0.473481
C    0.948191  -0.144028  -0.318622
H    1.892881   0.365759  -0.120630
H    0.883320  -0.218881  -1.405612
C    0.979044  -1.569316   0.266963
H    0.043611  -2.083613   0.048537
C    2.162636  -2.333383  -0.362515
O    3.288587  -2.189767   0.122852
C    3.000719  -3.885218  -2.090908
C    0.655967  -3.352329  -2.089754
C    2.292519  -4.821238  -3.071726
H    3.608922  -4.442091  -1.375722
H    3.656259  -3.192600  -2.621196
C    0.977236  -4.116243  -3.374941
H    0.128587  -2.423063  -2.310110
H    0.025147  -3.956990  -1.435602
H    2.882900  -5.022294  -3.966557
H    2.091313  -5.776954  -2.585115
H    1.121631  -3.410674  -4.194662
H    0.184096  -4.805765  -3.666950
N    1.942044  -3.123903  -1.431556
C    1.016709  -2.613660   2.466380
O    0.553835  -3.659501   2.012463
N    1.147515  -1.518480   1.718141
H    1.571926  -0.692783   2.107185
C    1.881967  -4.822623   4.346817
C    2.132150  -5.788014   5.339030
C    2.300534  -5.378049   6.676177
C    2.215644  -4.012292   7.028878
C    1.934417  -3.055130   6.022419
C    1.742508  -3.453184   4.681208
H    1.771951  -5.182797   3.336145
H    2.491862  -6.120948   7.437544
H    1.828643  -2.012691   6.290802
N    1.415901  -2.446043   3.731247
H    1.615395  -1.500749   4.018253
C    2.189936  -7.253241   4.945667
C    2.375860  -3.634788   8.459893
O    2.381297  -4.461147   9.376002
F    3.276464  -7.470603   4.208527
F    2.228641  -8.053745   6.009860
F    1.113949  -7.564800   4.224892
O    2.532536  -2.313807   8.651875
C    2.545817  -1.819044   9.979864
H    3.371992  -2.277721  10.525249
H    1.630334  -2.118249  10.488214
C    2.713884  -0.293023   9.993911
H    2.817068   0.045102  11.024057
H    3.668749  -0.059207   9.521852
C    1.607421   0.503982   9.266634
H    1.567529   0.156659   8.234634
H    1.967498   1.529470   9.175275
C    0.178913   0.577802   9.900007
H    0.006184   1.635181  10.098616
C   -0.072492  -0.126167  11.248642
O   -0.624005  -1.229288  11.261201
C    0.166306  -0.142672  13.705338
C    0.946203   1.793011  12.512061
C    0.539147   0.936644  14.722918
H    0.844696  -0.994228  13.779419
H   -0.849403  -0.508824  13.865763
C    1.456382   1.874786  13.950480
H    0.187795   2.557852  12.337484
H    1.755760   1.955262  11.800315
H   -0.358362   1.474640  15.032166
H    1.007012   0.528941  15.619933
H    1.452233   2.891939  14.344396
H    2.481831   1.504738  13.997646
N    0.323950   0.474121  12.389637

1 2 2.0 3 1.0 14 1.0 
2 
3 4 1.0 
4 
5 6 1.5 10 1.5 11 1.0 
6 7 1.5 16 1.0 
7 8 1.5 12 1.0 
8 9 1.5 17 1.0 
9 10 1.5 13 1.0 
10 14 1.0 
11 
12 
13 
14 15 1.0 
15 
16 19 1.0 20 1.0 21 1.0 
17 18 2.0 22 1.0 
18 
19 
20 
21 
22 23 1.0 
23 24 1.0 25 1.0 26 1.0 
24 
25 
26 27 1.0 28 1.0 29 1.0 
27 
28 
29 30 1.0 31 1.0 32 1.0 
30 
31 
32 33 1.0 34 1.0 51 1.0 
33 
34 35 2.0 48 1.0 
35 
36 38 1.0 39 1.0 40 1.0 48 1.0 
37 41 1.0 42 1.0 43 1.0 48 1.0 
38 41 1.0 44 1.0 45 1.0 
39 
40 
41 46 1.0 47 1.0 
42 
43 
44 
45 
46 
47 
48 
49 50 2.0 51 1.0 62 1.0 
50 
51 52 1.0 
52 
53 54 1.5 58 1.5 59 1.0 
54 55 1.5 64 1.0 
55 56 1.5 60 1.0 
56 57 1.5 65 1.0 
57 58 1.5 61 1.0 
58 62 1.0 
59 
60 
61 
62 63 1.0 
63 
64 67 1.0 68 1.0 69 1.0 
65 66 2.0 70 1.0 
66 
67 
68 
69 
70 71 1.0 
71 72 1.0 73 1.0 74 1.0 
72 
73 
74 75 1.0 76 1.0 77 1.0 
75 
76 
77 78 1.0 79 1.0 80 1.0 
78 
79 
80 81 1.0 82 1.0 
81 
82 83 2.0 96 1.0 
83 
84 86 1.0 87 1.0 88 1.0 96 1.0 
85 89 1.0 90 1.0 91 1.0 96 1.0 
86 89 1.0 92 1.0 93 1.0 
87 
88 
89 94 1.0 95 1.0 
90 
91 
92 
93 
94 
95 
96 


