%mem=1GB
%nprocshared=12
#p geom=connect #p opt b3lyp m06-2x geom=connect scrf=(solvent=benzene) freq

00001

0 1
C   -1.064533  -2.016767   7.793930
O   -1.135913  -2.980337   7.028458
N    0.079809  -1.555968   8.284134
H    0.081948  -0.743439   8.884429
C   -4.423110  -1.603633   8.966925
C   -5.748616  -2.016130   8.716628
C   -6.131534  -2.372094   7.408010
C   -5.195432  -2.339271   6.347720
C   -3.868468  -1.945104   6.615547
C   -3.470135  -1.617885   7.930987
H   -4.121727  -1.360883   9.975304
H   -7.147367  -2.701494   7.242065
H   -3.143195  -1.945719   5.812456
N   -2.122916  -1.347707   8.256487
H   -1.961257  -0.663002   8.978527
C   -6.739381  -2.166634   9.854614
C   -5.547437  -2.797466   4.982173
O   -4.825383  -2.625901   3.998882
F   -7.351583  -3.343043   9.747101
F   -7.647448  -1.196663   9.795470
F   -6.133668  -2.124064  11.039759
O   -6.693177  -3.494471   4.966020
C   -7.109951  -4.182442   3.799102
H   -8.178534  -4.003201   3.679205
H   -6.634878  -3.804908   2.892312
C   -6.867868  -5.690067   3.959848
H   -7.399874  -6.193669   3.151886
H   -7.340950  -6.042633   4.877379
C   -5.386514  -6.117400   3.898491
H   -4.750666  -5.305558   3.542427
H   -5.309540  -6.884980   3.125827
C   -4.857141  -6.701097   5.224724
H   -5.578225  -7.405181   5.641601
C   -3.509864  -7.391041   4.944668
O   -2.482541  -6.705283   4.921020
C   -2.251696  -9.458835   4.459802
C   -4.639193  -9.616259   4.702014
C   -2.635174 -10.938505   4.510622
H   -1.471129  -9.222983   5.185448
H   -1.881685  -9.188616   3.469441
C   -4.118335 -10.950156   4.165330
H   -5.451490  -9.235598   4.080852
H   -5.014827  -9.736717   5.719642
H   -2.037516 -11.554070   3.837118
H   -2.492289 -11.319435   5.523093
H   -4.240675 -10.982181   3.081517
H   -4.644439 -11.809224   4.583662
N   -3.484207  -8.719364   4.722381
C   -4.668396  -5.783362   7.477472
O   -5.370027  -6.646506   8.003320
N   -4.571869  -5.624611   6.161734
H   -3.920694  -4.933465   5.822052
C   -4.770169  -5.039429  10.454712
C   -4.598867  -4.726827  11.820137
C   -3.358259  -4.222022  12.266776
C   -2.288325  -4.025317  11.363871
C   -2.472414  -4.366356  10.004986
C   -3.711768  -4.838121   9.540227
H   -5.735755  -5.382576  10.114822
H   -3.244964  -3.960218  13.309552
H   -1.672965  -4.227838   9.293365
N   -3.865850  -4.950791   8.139951
H   -3.229553  -4.392906   7.586386
C   -5.750235  -4.879286  12.799705
C   -1.022303  -3.402664  11.835135
O   -0.847850  -3.000140  12.986346
F   -6.915841  -5.038662  12.175090
F   -5.532152  -5.939519  13.573341
F   -5.837039  -3.797173  13.570829
O   -0.111584  -3.299183  10.856857
C    1.102397  -2.599340  11.060728
H    1.438320  -2.679049  12.095838
H    0.945156  -1.539966  10.858604
C    2.181770  -3.181439  10.137554
H    3.089717  -2.585900  10.237055
H    2.445197  -4.173573  10.505592
C    1.792928  -3.311423   8.647238
H    0.989831  -4.042456   8.545501
H    2.638822  -3.765764   8.132317
C    1.406352  -2.011674   7.899249
H    1.352740  -2.245974   6.834727
C    2.378095  -0.835163   8.062788
O    2.140490   0.000022   8.941645
C    4.426650   0.349049   7.361331
C    3.824747  -1.658984   6.183451
C    5.316146   0.231642   6.122883
H    3.941186   1.325395   7.412289
H    5.012731   0.218317   8.272445
C    5.227028  -1.239342   5.740066
H    3.814785  -2.702922   6.496110
H    3.117305  -1.543564   5.360663
H    6.339763   0.562029   6.303978
H    4.906995   0.844608   5.318226
H    5.973179  -1.807490   6.297881
H    5.404894  -1.412683   4.677935
N    3.458323  -0.741277   7.262087

1 2 2.0 3 1.0 14 1.0 
2 
3 4 1.0 
4 
5 6 1.5 10 1.5 11 1.0 
6 7 1.5 16 1.0 
7 8 1.5 12 1.0 
8 9 1.5 17 1.0 
9 10 1.5 13 1.0 
10 14 1.0 
11 
12 
13 
14 15 1.0 
15 
16 19 1.0 20 1.0 21 1.0 
17 18 2.0 22 1.0 
18 
19 
20 
21 
22 23 1.0 
23 24 1.0 25 1.0 26 1.0 
24 
25 
26 27 1.0 28 1.0 29 1.0 
27 
28 
29 30 1.0 31 1.0 32 1.0 
30 
31 
32 33 1.0 34 1.0 51 1.0 
33 
34 35 2.0 48 1.0 
35 
36 38 1.0 39 1.0 40 1.0 48 1.0 
37 41 1.0 42 1.0 43 1.0 48 1.0 
38 41 1.0 44 1.0 45 1.0 
39 
40 
41 46 1.0 47 1.0 
42 
43 
44 
45 
46 
47 
48 
49 50 2.0 51 1.0 62 1.0 
50 
51 52 1.0 
52 
53 54 1.5 58 1.5 59 1.0 
54 55 1.5 64 1.0 
55 56 1.5 60 1.0 
56 57 1.5 65 1.0 
57 58 1.5 61 1.0 
58 62 1.0 
59 
60 
61 
62 63 1.0 
63 
64 67 1.0 68 1.0 69 1.0 
65 66 2.0 70 1.0 
66 
67 
68 
69 
70 71 1.0 
71 72 1.0 73 1.0 74 1.0 
72 
73 
74 75 1.0 76 1.0 77 1.0 
75 
76 
77 78 1.0 79 1.0 80 1.0 
78 
79 
80 81 1.0 82 1.0 
81 
82 83 2.0 96 1.0 
83 
84 86 1.0 87 1.0 88 1.0 96 1.0 
85 89 1.0 90 1.0 91 1.0 96 1.0 
86 89 1.0 92 1.0 93 1.0 
87 
88 
89 94 1.0 95 1.0 
90 
91 
92 
93 
94 
95 
96 


