%mem=1GB
%nprocshared=12
#p geom=connect #p opt b3lyp m06-2x geom=connect scrf=(solvent=benzene) freq

00007

0 1
C   -0.824880  -1.805294   7.827069
O   -0.517577  -2.614415   6.949988
N    0.073031  -1.083749   8.486739
H   -0.221970  -0.412955   9.182212
C   -4.312238  -2.495213   8.513906
C   -5.445038  -3.157780   7.993874
C   -5.537065  -3.399949   6.605669
C   -4.488646  -3.006499   5.743534
C   -3.361196  -2.353435   6.277882
C   -3.246664  -2.133657   7.667775
H   -4.238394  -2.335647   9.579709
H   -6.394393  -3.930330   6.216322
H   -2.556942  -2.070905   5.611800
N   -2.075344  -1.586360   8.244164
H   -2.201081  -1.016377   9.066052
C   -6.516511  -3.661795   8.941761
C   -4.480505  -3.342291   4.303322
O   -3.834716  -2.712692   3.463415
F   -5.972703  -4.012114  10.105637
F   -7.406875  -2.697387   9.156911
F   -7.142491  -4.722797   8.440277
O   -5.154975  -4.472459   4.038247
C   -4.963593  -5.125517   2.790743
H   -5.810300  -5.783707   2.595085
H   -4.951522  -4.392634   1.982237
C   -3.649791  -5.934849   2.801676
H   -2.833882  -5.342341   3.216222
H   -3.363724  -6.124424   1.766630
C   -3.732897  -7.294525   3.515861
H   -2.743893  -7.756431   3.512357
H   -4.358675  -7.949587   2.906938
C   -4.298628  -7.272955   4.950280
H   -5.290827  -6.824331   4.955220
C   -4.377384  -8.723595   5.469958
O   -3.359277  -9.243333   5.935902
C   -5.715262 -10.760071   5.867550
C   -6.801731  -8.874949   4.844236
C   -7.219629 -11.033642   5.826385
H   -5.312034 -10.895560   6.872815
H   -5.180307 -11.435082   5.197594
C   -7.742505 -10.077714   4.762554
H   -6.671360  -8.414310   3.863801
H   -7.204295  -8.122924   5.525389
H   -7.454684 -12.077061   5.612571
H   -7.663368 -10.784410   6.791603
H   -7.657754 -10.543578   3.779495
H   -8.788649  -9.807700   4.912391
N   -5.546591  -9.389051   5.391558
C   -3.798075  -6.202805   7.083159
O   -4.939530  -6.409688   7.494884
N   -3.438792  -6.481722   5.829833
H   -2.486975  -6.332630   5.537581
C   -3.729017  -6.007428  10.120165
C   -3.717274  -5.646570  11.481910
C   -2.716892  -4.775074  11.955785
C   -1.720896  -4.275806  11.086830
C   -1.743454  -4.654815   9.724292
C   -2.774713  -5.472508   9.220304
H   -4.511057  -6.672383   9.790376
H   -2.721747  -4.490158  12.998672
H   -0.995003  -4.274374   9.045352
N   -2.810626  -5.676466   7.813922
H   -1.969490  -5.423046   7.317745
C   -4.789450  -6.169587  12.423358
C   -0.713678  -3.322930  11.620110
O   -0.825248  -2.768748  12.715187
F   -4.328557  -7.244282  13.057984
F   -5.110469  -5.243780  13.325859
F   -5.896355  -6.505272  11.761861
O    0.316907  -3.122594  10.788210
C    1.304558  -2.166508  11.134645
H    1.616963  -2.305349  12.171044
H    0.879966  -1.165107  11.066433
C    2.529440  -2.306088  10.223143
H    3.246443  -1.525773  10.480247
H    3.028333  -3.247498  10.455441
C    2.239939  -2.270938   8.708659
H    1.700304  -3.176470   8.428993
H    3.196167  -2.356006   8.193608
C    1.491145  -1.029762   8.161210
H    1.554264  -1.062220   7.072126
C    2.036098   0.334954   8.604733
O    1.507655   0.888141   9.574505
C    3.638063   2.188205   8.306774
C    3.752326   0.340941   6.771844
C    4.572082   2.572729   7.158597
H    4.195318   2.077533   9.238400
H    2.868150   2.945717   8.464758
C    4.968428   1.239038   6.540287
H    3.081635   0.383227   5.912109
H    4.059297  -0.695067   6.912737
H    4.025776   3.168104   6.425325
H    5.430198   3.159294   7.489242
H    5.238022   1.323489   5.486725
H    5.830722   0.832550   7.071245
N    3.067867   0.893077   7.940857

1 2 2.0 3 1.0 14 1.0 
2 
3 4 1.0 
4 
5 6 1.5 10 1.5 11 1.0 
6 7 1.5 16 1.0 
7 8 1.5 12 1.0 
8 9 1.5 17 1.0 
9 10 1.5 13 1.0 
10 14 1.0 
11 
12 
13 
14 15 1.0 
15 
16 19 1.0 20 1.0 21 1.0 
17 18 2.0 22 1.0 
18 
19 
20 
21 
22 23 1.0 
23 24 1.0 25 1.0 26 1.0 
24 
25 
26 27 1.0 28 1.0 29 1.0 
27 
28 
29 30 1.0 31 1.0 32 1.0 
30 
31 
32 33 1.0 34 1.0 51 1.0 
33 
34 35 2.0 48 1.0 
35 
36 38 1.0 39 1.0 40 1.0 48 1.0 
37 41 1.0 42 1.0 43 1.0 48 1.0 
38 41 1.0 44 1.0 45 1.0 
39 
40 
41 46 1.0 47 1.0 
42 
43 
44 
45 
46 
47 
48 
49 50 2.0 51 1.0 62 1.0 
50 
51 52 1.0 
52 
53 54 1.5 58 1.5 59 1.0 
54 55 1.5 64 1.0 
55 56 1.5 60 1.0 
56 57 1.5 65 1.0 
57 58 1.5 61 1.0 
58 62 1.0 
59 
60 
61 
62 63 1.0 
63 
64 67 1.0 68 1.0 69 1.0 
65 66 2.0 70 1.0 
66 
67 
68 
69 
70 71 1.0 
71 72 1.0 73 1.0 74 1.0 
72 
73 
74 75 1.0 76 1.0 77 1.0 
75 
76 
77 78 1.0 79 1.0 80 1.0 
78 
79 
80 81 1.0 82 1.0 
81 
82 83 2.0 96 1.0 
83 
84 86 1.0 87 1.0 88 1.0 96 1.0 
85 89 1.0 90 1.0 91 1.0 96 1.0 
86 89 1.0 92 1.0 93 1.0 
87 
88 
89 94 1.0 95 1.0 
90 
91 
92 
93 
94 
95 
96 


