%mem=1GB
%nprocshared=12
#p geom=connect #p opt b3lyp m06-2x geom=connect scrf=(solvent=benzene) freq

00012

0 1
C   -1.005951  -2.317184   7.661864
O   -0.706132  -3.090149   6.747639
N   -0.142910  -1.497618   8.251932
H   -0.471956  -0.858077   8.960676
C   -4.252084  -3.573541   8.466320
C   -5.359762  -4.236892   7.896917
C   -5.643473  -4.069857   6.523174
C   -4.805381  -3.269783   5.711747
C   -3.684326  -2.640302   6.288376
C   -3.387579  -2.815872   7.654892
H   -4.026505  -3.722260   9.512317
H   -6.484693  -4.592152   6.090527
H   -3.020720  -2.057872   5.662792
N   -2.217614  -2.266346   8.217657
H   -2.318370  -1.782593   9.096735
C   -6.182832  -5.184993   8.748633
C   -4.990406  -3.153862   4.246480
O   -4.484735  -2.255425   3.571783
F   -5.408777  -5.783723   9.653755
F   -6.760260  -6.124273   8.000501
F   -7.129774  -4.498232   9.381766
O   -5.648055  -4.207595   3.726421
C   -5.446071  -4.553547   2.361638
H   -6.414615  -4.754848   1.903627
H   -5.013711  -3.729845   1.791904
C   -4.542774  -5.799002   2.233287
H   -4.168344  -5.829754   1.209541
H   -5.146249  -6.699997   2.339077
C   -3.344500  -5.844596   3.209695
H   -2.936193  -4.841259   3.331538
H   -2.535306  -6.415775   2.750857
C   -3.713067  -6.475260   4.574493
H   -4.691784  -6.128599   4.886571
C   -3.694902  -8.015924   4.486452
O   -2.613493  -8.578967   4.298704
C   -4.905820 -10.163815   4.574001
C   -6.171387  -8.147079   4.899078
C   -6.291729 -10.543900   5.096912
H   -4.116543 -10.626573   5.169448
H   -4.779153 -10.487221   3.539693
C   -7.147640  -9.319401   4.805246
H   -6.451772  -7.357508   4.201180
H   -6.176672  -7.729346   5.907237
H   -6.682102 -11.454219   4.640224
H   -6.243476 -10.707027   6.174772
H   -7.545544  -9.384997   3.791389
H   -7.992899  -9.220769   5.487599
N   -4.846573  -8.704570   4.622683
C   -2.917809  -6.350528   6.891462
O   -3.862429  -7.016856   7.313577
N   -2.798675  -6.004104   5.609126
H   -2.002264  -5.459496   5.317763
C   -2.442119  -6.909214   9.881235
C   -2.241825  -6.900931  11.278328
C   -1.346111  -5.969521  11.850495
C   -0.646587  -5.060059  11.028428
C   -0.822923  -5.120520   9.630503
C   -1.749544  -5.997600   9.048011
H   -3.151561  -7.620263   9.487565
H   -1.213724  -5.935551  12.922661
H   -0.254146  -4.463891   8.993934
N   -1.937670  -5.860612   7.648146
H   -1.290545  -5.236198   7.183387
C   -3.035495  -7.865657  12.142565
C    0.238235  -4.024703  11.614741
O    0.785854  -4.120543  12.713302
F   -2.910566  -9.104060  11.669624
F   -4.322083  -7.524583  12.112623
F   -2.621449  -7.854486  13.408979
O    0.325920  -2.959387  10.804922
C    1.208801  -1.883670  11.058479
H    1.504459  -1.832079  12.107392
H    0.681245  -0.954932  10.844601
C    2.443866  -2.011439  10.151295
H    3.041390  -1.104029  10.244405
H    3.073274  -2.812264  10.540939
C    2.161487  -2.307677   8.656777
H    1.758082  -3.315364   8.557055
H    3.125854  -2.353053   8.151430
C    1.254063  -1.315263   7.887397
H    1.333610  -1.550859   6.825008
C    1.606046   0.169106   8.057120
O    1.020374   0.812990   8.933523
C    2.929699   2.135449   7.370366
C    3.286700   0.068565   6.194650
C    3.794879   2.422491   6.142474
H    2.063417   2.798323   7.411488
H    3.502518   2.275348   8.288537
C    4.366760   1.062691   5.765399
H    3.732875  -0.873822   6.512002
H    2.610418  -0.137783   5.363469
H    4.566390   3.169510   6.333485
H    3.167409   2.793523   5.330549
H    5.279854   0.880282   6.334329
H    4.615787   0.986302   4.706177
N    2.541309   0.730321   7.265287

1 2 2.0 3 1.0 14 1.0 
2 
3 4 1.0 
4 
5 6 1.5 10 1.5 11 1.0 
6 7 1.5 16 1.0 
7 8 1.5 12 1.0 
8 9 1.5 17 1.0 
9 10 1.5 13 1.0 
10 14 1.0 
11 
12 
13 
14 15 1.0 
15 
16 19 1.0 20 1.0 21 1.0 
17 18 2.0 22 1.0 
18 
19 
20 
21 
22 23 1.0 
23 24 1.0 25 1.0 26 1.0 
24 
25 
26 27 1.0 28 1.0 29 1.0 
27 
28 
29 30 1.0 31 1.0 32 1.0 
30 
31 
32 33 1.0 34 1.0 51 1.0 
33 
34 35 2.0 48 1.0 
35 
36 38 1.0 39 1.0 40 1.0 48 1.0 
37 41 1.0 42 1.0 43 1.0 48 1.0 
38 41 1.0 44 1.0 45 1.0 
39 
40 
41 46 1.0 47 1.0 
42 
43 
44 
45 
46 
47 
48 
49 50 2.0 51 1.0 62 1.0 
50 
51 52 1.0 
52 
53 54 1.5 58 1.5 59 1.0 
54 55 1.5 64 1.0 
55 56 1.5 60 1.0 
56 57 1.5 65 1.0 
57 58 1.5 61 1.0 
58 62 1.0 
59 
60 
61 
62 63 1.0 
63 
64 67 1.0 68 1.0 69 1.0 
65 66 2.0 70 1.0 
66 
67 
68 
69 
70 71 1.0 
71 72 1.0 73 1.0 74 1.0 
72 
73 
74 75 1.0 76 1.0 77 1.0 
75 
76 
77 78 1.0 79 1.0 80 1.0 
78 
79 
80 81 1.0 82 1.0 
81 
82 83 2.0 96 1.0 
83 
84 86 1.0 87 1.0 88 1.0 96 1.0 
85 89 1.0 90 1.0 91 1.0 96 1.0 
86 89 1.0 92 1.0 93 1.0 
87 
88 
89 94 1.0 95 1.0 
90 
91 
92 
93 
94 
95 
96 


