%mem=1GB
%nprocshared=12
#p geom=connect #p opt b3lyp m06-2x geom=connect scrf=(solvent=benzene) freq

00028

0 1
C   -1.480613  -0.780287   8.519092
O   -0.655980  -1.649560   8.240595
N   -1.251736   0.228042   9.360286
H   -2.018342   0.856704   9.535975
C   -4.546111  -1.319020   6.532602
C   -5.044333  -1.703872   5.268686
C   -4.141108  -1.978471   4.219433
C   -2.746319  -1.872846   4.426196
C   -2.264133  -1.501802   5.699625
C   -3.157857  -1.214123   6.757539
H   -5.243334  -1.100167   7.328127
H   -4.532141  -2.269881   3.254997
H   -1.196197  -1.403653   5.838430
N   -2.720001  -0.736685   8.019872
H   -3.381880  -0.156180   8.510101
C   -6.542250  -1.827917   5.038217
C   -1.767003  -2.114148   3.337078
O   -0.567456  -2.308780   3.541789
F   -6.856812  -1.497426   3.786311
F   -7.224103  -1.033130   5.862277
F   -6.915100  -3.087040   5.253706
O   -2.316284  -2.030219   2.107432
C   -1.490394  -2.133306   0.956629
H   -0.787086  -2.953919   1.098058
H   -2.108159  -2.402377   0.099833
C   -0.770872  -0.795282   0.683873
H   -0.359901  -0.396898   1.611399
H   -1.502008  -0.055771   0.355865
C    0.370945  -0.880399  -0.347167
H    0.880130   0.085219  -0.373561
H   -0.058033  -1.013017  -1.341468
C    1.382951  -2.018770  -0.084908
H    0.926555  -2.982978  -0.310684
C    2.636349  -1.783571  -0.949142
O    3.505072  -1.006818  -0.541168
C    3.904971  -2.260831  -3.013526
C    1.775419  -3.338276  -2.719831
C    3.749853  -3.327029  -4.099067
H    4.846911  -2.374503  -2.473782
H    3.886023  -1.260079  -3.448053
C    2.250549  -3.588354  -4.151887
H    0.761590  -2.935557  -2.709888
H    1.779641  -4.269080  -2.149825
H    4.160870  -3.015614  -5.060208
H    4.269247  -4.237254  -3.795165
H    1.778430  -2.871352  -4.825418
H    2.006970  -4.589469  -4.509961
N    2.748379  -2.416697  -2.134034
C    2.241168  -3.052038   1.967729
O    2.421289  -4.132955   1.407140
N    1.774698  -1.987562   1.319945
H    1.700504  -1.104533   1.797216
C    3.101695  -5.066015   4.114244
C    3.236099  -5.956360   5.196872
C    2.949400  -5.506098   6.501100
C    2.542315  -4.172847   6.734155
C    2.400598  -3.292655   5.634800
C    2.659098  -3.736094   4.318025
H    3.346727  -5.443842   3.134258
H    3.060596  -6.188646   7.331905
H    2.067647  -2.277476   5.804278
N    2.458643  -2.804114   3.264164
H    2.253435  -1.864354   3.563692
C    3.702467  -7.380805   4.942174
C    2.274817  -3.747828   8.135161
O    2.103439  -4.552570   9.054519
F    5.005390  -7.373685   4.670446
F    3.492509  -8.166156   5.998037
F    3.051918  -7.897924   3.901060
O    2.301297  -2.412857   8.310499
C    2.167608  -1.911362   9.631792
H    2.896836  -2.414472  10.269113
H    1.184206  -2.163399  10.025642
C    2.434752  -0.400729   9.695034
H    2.710059  -0.138293  10.715832
H    3.323813  -0.181674   9.102665
C    1.274858   0.501989   9.220169
H    1.054877   0.263243   8.180045
H    1.667627   1.518305   9.171408
C   -0.025743   0.550628  10.089849
H   -0.188249   1.608032  10.298134
C   -0.016901  -0.126940  11.474788
O   -0.566807  -1.222944  11.610003
C    0.681442  -0.102171  13.843252
C    1.255363   1.792535  12.478671
C    1.246001   0.993319  14.748862
H    1.354575  -0.960397  13.809125
H   -0.289819  -0.452154  14.197673
C    2.017981   1.899017  13.799210
H    0.493619   2.571463  12.418621
H    1.928825   1.913768  11.630180
H    0.426249   1.552478  15.202669
H    1.864704   0.598316  15.555670
H    2.096780   2.924880  14.161403
H    3.030871   1.514293  13.669745
N    0.597340   0.485904  12.507572

1 2 2.0 3 1.0 14 1.0 
2 
3 4 1.0 
4 
5 6 1.5 10 1.5 11 1.0 
6 7 1.5 16 1.0 
7 8 1.5 12 1.0 
8 9 1.5 17 1.0 
9 10 1.5 13 1.0 
10 14 1.0 
11 
12 
13 
14 15 1.0 
15 
16 19 1.0 20 1.0 21 1.0 
17 18 2.0 22 1.0 
18 
19 
20 
21 
22 23 1.0 
23 24 1.0 25 1.0 26 1.0 
24 
25 
26 27 1.0 28 1.0 29 1.0 
27 
28 
29 30 1.0 31 1.0 32 1.0 
30 
31 
32 33 1.0 34 1.0 51 1.0 
33 
34 35 2.0 48 1.0 
35 
36 38 1.0 39 1.0 40 1.0 48 1.0 
37 41 1.0 42 1.0 43 1.0 48 1.0 
38 41 1.0 44 1.0 45 1.0 
39 
40 
41 46 1.0 47 1.0 
42 
43 
44 
45 
46 
47 
48 
49 50 2.0 51 1.0 62 1.0 
50 
51 52 1.0 
52 
53 54 1.5 58 1.5 59 1.0 
54 55 1.5 64 1.0 
55 56 1.5 60 1.0 
56 57 1.5 65 1.0 
57 58 1.5 61 1.0 
58 62 1.0 
59 
60 
61 
62 63 1.0 
63 
64 67 1.0 68 1.0 69 1.0 
65 66 2.0 70 1.0 
66 
67 
68 
69 
70 71 1.0 
71 72 1.0 73 1.0 74 1.0 
72 
73 
74 75 1.0 76 1.0 77 1.0 
75 
76 
77 78 1.0 79 1.0 80 1.0 
78 
79 
80 81 1.0 82 1.0 
81 
82 83 2.0 96 1.0 
83 
84 86 1.0 87 1.0 88 1.0 96 1.0 
85 89 1.0 90 1.0 91 1.0 96 1.0 
86 89 1.0 92 1.0 93 1.0 
87 
88 
89 94 1.0 95 1.0 
90 
91 
92 
93 
94 
95 
96 


