%mem=1GB
%nprocshared=12
#p geom=connect #p opt b3lyp m06-2x geom=connect scrf=(solvent=benzene) freq

00003

0 1
C   -1.824200  -2.934471   7.154262
O   -2.073193  -4.102434   6.870541
N   -0.586946  -2.480912   7.308604
H   -0.426133  -1.502417   7.500339
C   -4.888987  -1.183977   8.091190
C   -6.292714  -1.280704   8.164414
C   -6.959778  -2.269667   7.412236
C   -6.236274  -3.164624   6.592877
C   -4.826108  -3.047891   6.524295
C   -4.146381  -2.085397   7.305853
H   -4.383506  -0.440372   8.689958
H   -8.035271  -2.351190   7.486590
H   -4.263448  -3.726175   5.898915
N   -2.736683  -1.985790   7.375637
H   -2.381620  -1.097234   7.691103
C   -7.062226  -0.359397   9.093814
C   -6.964656  -4.247189   5.879492
O   -8.189291  -4.372616   5.898404
F   -7.373697   0.763781   8.453205
F   -6.320759  -0.059001  10.158313
F   -8.181000  -0.940991   9.520195
O   -6.131914  -5.110099   5.280426
C   -6.608010  -6.289071   4.651100
H   -7.615376  -6.133001   4.261835
H   -5.981164  -6.509855   3.787027
C   -6.595319  -7.476884   5.629145
H   -7.270391  -8.225454   5.213009
H   -7.050306  -7.199888   6.580653
C   -5.232938  -8.186450   5.841927
H   -4.865658  -8.547094   4.879072
H   -5.448119  -9.098255   6.400599
C   -4.094258  -7.454962   6.608337
H   -3.614058  -8.189549   7.253005
C   -3.082453  -6.826410   5.627011
O   -3.493244  -6.046688   4.765478
C   -0.759855  -6.546944   4.845208
C   -1.154034  -8.082940   6.648449
C    0.589065  -6.959273   5.433246
H   -0.881194  -6.947646   3.837713
H   -0.857257  -5.461585   4.786894
C    0.291158  -8.250027   6.178525
H   -1.661203  -9.048464   6.665269
H   -1.181050  -7.660410   7.653835
H    1.368693  -7.069276   4.678495
H    0.918634  -6.208788   6.148616
H    0.984089  -8.434728   7.000394
H    0.359038  -9.093909   5.490206
N   -1.773093  -7.141304   5.715280
C   -4.091795  -5.942819   8.545063
O   -3.055690  -6.409642   9.018361
N   -4.657227  -6.400097   7.433733
H   -5.445772  -5.914081   7.040023
C   -5.390810  -3.504898  10.949493
C   -5.046833  -2.510203  11.890491
C   -3.702839  -2.089295  11.995808
C   -2.700643  -2.658624  11.177733
C   -3.056829  -3.688432  10.278316
C   -4.401382  -4.091900  10.136796
H   -6.425075  -3.797825  10.843199
H   -3.450269  -1.303088  12.693461
H   -2.304612  -4.124875   9.638364
N   -4.808740  -4.965995   9.102997
H   -5.730431  -4.806591   8.729751
C   -6.120552  -1.872203  12.756231
C   -1.314680  -2.121571  11.214058
O   -0.973633  -1.157523  11.901094
F   -7.314384  -1.944031  12.170080
F   -6.178808  -2.510611  13.921809
F   -5.844238  -0.589532  12.984093
O   -0.494097  -2.775874  10.382140
C    0.807402  -2.288839  10.122019
H    1.288060  -1.958462  11.044267
H    0.744711  -1.421356   9.465029
C    1.644660  -3.404183   9.481307
H    2.617841  -2.997838   9.204231
H    1.851487  -4.155998  10.243650
C    1.005024  -4.116715   8.268245
H    0.130180  -4.680236   8.596651
H    1.710777  -4.878742   7.940719
C    0.625315  -3.240082   7.050176
H    0.396383  -3.905994   6.218223
C    1.701832  -2.263322   6.560356
O    1.661304  -1.097413   6.966925
C    3.695613  -1.810603   5.178956
C    2.798244  -4.040445   5.167142
C    4.357051  -2.588367   4.040812
H    3.290420  -0.859584   4.828291
H    4.414718  -1.596805   5.971310
C    4.123937  -4.047992   4.404985
H    2.804361  -4.801107   5.946771
H    1.969105  -4.247921   4.488655
H    3.853070  -2.360965   3.100120
H    5.413157  -2.344379   3.918972
H    4.923170  -4.391650   5.063624
H    4.107467  -4.704874   3.534326
N    2.656107  -2.689867   5.709666

1 2 2.0 3 1.0 14 1.0 
2 
3 4 1.0 
4 
5 6 1.5 10 1.5 11 1.0 
6 7 1.5 16 1.0 
7 8 1.5 12 1.0 
8 9 1.5 17 1.0 
9 10 1.5 13 1.0 
10 14 1.0 
11 
12 
13 
14 15 1.0 
15 
16 19 1.0 20 1.0 21 1.0 
17 18 2.0 22 1.0 
18 
19 
20 
21 
22 23 1.0 
23 24 1.0 25 1.0 26 1.0 
24 
25 
26 27 1.0 28 1.0 29 1.0 
27 
28 
29 30 1.0 31 1.0 32 1.0 
30 
31 
32 33 1.0 34 1.0 51 1.0 
33 
34 35 2.0 48 1.0 
35 
36 38 1.0 39 1.0 40 1.0 48 1.0 
37 41 1.0 42 1.0 43 1.0 48 1.0 
38 41 1.0 44 1.0 45 1.0 
39 
40 
41 46 1.0 47 1.0 
42 
43 
44 
45 
46 
47 
48 
49 50 2.0 51 1.0 62 1.0 
50 
51 52 1.0 
52 
53 54 1.5 58 1.5 59 1.0 
54 55 1.5 64 1.0 
55 56 1.5 60 1.0 
56 57 1.5 65 1.0 
57 58 1.5 61 1.0 
58 62 1.0 
59 
60 
61 
62 63 1.0 
63 
64 67 1.0 68 1.0 69 1.0 
65 66 2.0 70 1.0 
66 
67 
68 
69 
70 71 1.0 
71 72 1.0 73 1.0 74 1.0 
72 
73 
74 75 1.0 76 1.0 77 1.0 
75 
76 
77 78 1.0 79 1.0 80 1.0 
78 
79 
80 81 1.0 82 1.0 
81 
82 83 2.0 96 1.0 
83 
84 86 1.0 87 1.0 88 1.0 96 1.0 
85 89 1.0 90 1.0 91 1.0 96 1.0 
86 89 1.0 92 1.0 93 1.0 
87 
88 
89 94 1.0 95 1.0 
90 
91 
92 
93 
94 
95 
96 


