%mem=1GB
%nprocshared=12
#p geom=connect #p opt b3lyp m06-2x geom=connect scrf=(solvent=benzene) freq

00011

0 1
C   -1.037530  -2.530562   7.990026
O   -0.720126  -3.369984   7.142931
N   -0.160279  -1.762214   8.624375
H   -0.487213  -1.080799   9.294867
C   -4.557907  -3.195903   8.412512
C   -5.661397  -3.758144   7.735341
C   -5.683761  -3.765788   6.323554
C   -4.600242  -3.233041   5.588212
C   -3.494303  -2.699531   6.278342
C   -3.448657  -2.721034   7.688140
H   -4.532288  -3.214369   9.492101
H   -6.523445  -4.214877   5.812582
H   -2.649796  -2.328796   5.712555
N   -2.292648  -2.318846   8.392585
H   -2.439230  -1.777889   9.230713
C   -6.779831  -4.418134   8.520051
C   -4.521648  -3.318861   4.111947
O   -3.790767  -2.596913   3.431760
F   -7.772681  -3.550007   8.691055
F   -6.350129  -4.820796   9.714667
F   -7.243196  -5.480196   7.863446
O   -5.221560  -4.359846   3.621978
C   -4.847384  -4.928046   2.372900
H   -5.746787  -5.090567   1.778738
H   -4.223265  -4.251273   1.787679
C   -4.108723  -6.269125   2.571855
H   -3.594232  -6.502104   1.639002
H   -4.835202  -7.070927   2.699915
C   -3.083933  -6.289405   3.729767
H   -2.570899  -5.328661   3.776911
H   -2.297840  -7.009289   3.494338
C   -3.726994  -6.652820   5.090227
H   -4.682535  -6.150468   5.193008
C   -3.905318  -8.180189   5.216940
O   -2.894836  -8.884056   5.290079
C   -5.397056 -10.137837   5.391124
C   -6.409653  -7.964982   5.224764
C   -6.884234 -10.272870   5.721118
H   -5.163064 -10.630080   4.445936
H   -4.775857 -10.588833   6.167247
C   -7.511810  -9.019466   5.127565
H   -6.472756  -7.265389   4.390708
H   -6.507378  -7.399230   6.152715
H   -7.322779 -11.192879   5.332664
H   -7.019888 -10.271257   6.803853
H   -8.427945  -8.721172   5.638953
H   -7.759091  -9.195882   4.079584
N   -5.147189  -8.704924   5.251271
C   -3.263319  -6.246505   7.463420
O   -4.352085  -6.702240   7.811855
N   -2.907456  -6.141624   6.182635
H   -2.004209  -5.758975   5.950945
C   -3.523744  -5.860159  10.501098
C   -3.592343  -5.399463  11.832207
C   -2.537922  -4.620263  12.352101
C   -1.400672  -4.334428  11.565402
C   -1.325013  -4.857240  10.254970
C   -2.406892  -5.550408   9.688648
H   -4.371822  -6.406417  10.122642
H   -2.621987  -4.220379  13.353009
H   -0.464623  -4.651576   9.634879
N   -2.325639  -5.788630   8.292358
H   -1.492416  -5.428360   7.846765
C   -4.835008  -5.656952  12.666723
C   -0.353707  -3.413029  12.077919
O   -0.427279  -2.818929  13.154505
F   -5.502312  -6.725991  12.234990
F   -5.632457  -4.594798  12.585197
F   -4.509228  -5.851747  13.943525
O    0.645096  -3.257538  11.204125
C    1.564774  -2.196858  11.347578
H    2.007228  -2.204912  12.344879
H    1.041740  -1.247500  11.233242
C    2.659944  -2.350077  10.283733
H    3.301159  -1.468387  10.307265
H    3.302301  -3.182038  10.574288
C    2.165835  -2.611108   8.841108
H    1.699984  -3.595900   8.789930
H    3.050761  -2.702240   8.212316
C    1.220505  -1.562162   8.205029
H    1.242091  -1.721071   7.125323
C    1.580019  -0.088370   8.443259
O    1.003197   0.514357   9.354383
C    2.893764   1.909595   7.834421
C    3.232039  -0.096121   6.552341
C    3.730064   2.260458   6.603216
H    2.027983   2.567738   7.928423
H    3.487197   2.004527   8.745204
C    4.297722   0.923394   6.147189
H    3.691784  -1.047803   6.816903
H    2.540420  -0.269443   5.726286
H    4.503212   3.000590   6.813447
H    3.083266   2.668102   5.824699
H    5.224650   0.718065   6.685098
H    4.522191   0.899857   5.080010
N    2.505339   0.510426   7.667560

1 2 2.0 3 1.0 14 1.0 
2 
3 4 1.0 
4 
5 6 1.5 10 1.5 11 1.0 
6 7 1.5 16 1.0 
7 8 1.5 12 1.0 
8 9 1.5 17 1.0 
9 10 1.5 13 1.0 
10 14 1.0 
11 
12 
13 
14 15 1.0 
15 
16 19 1.0 20 1.0 21 1.0 
17 18 2.0 22 1.0 
18 
19 
20 
21 
22 23 1.0 
23 24 1.0 25 1.0 26 1.0 
24 
25 
26 27 1.0 28 1.0 29 1.0 
27 
28 
29 30 1.0 31 1.0 32 1.0 
30 
31 
32 33 1.0 34 1.0 51 1.0 
33 
34 35 2.0 48 1.0 
35 
36 38 1.0 39 1.0 40 1.0 48 1.0 
37 41 1.0 42 1.0 43 1.0 48 1.0 
38 41 1.0 44 1.0 45 1.0 
39 
40 
41 46 1.0 47 1.0 
42 
43 
44 
45 
46 
47 
48 
49 50 2.0 51 1.0 62 1.0 
50 
51 52 1.0 
52 
53 54 1.5 58 1.5 59 1.0 
54 55 1.5 64 1.0 
55 56 1.5 60 1.0 
56 57 1.5 65 1.0 
57 58 1.5 61 1.0 
58 62 1.0 
59 
60 
61 
62 63 1.0 
63 
64 67 1.0 68 1.0 69 1.0 
65 66 2.0 70 1.0 
66 
67 
68 
69 
70 71 1.0 
71 72 1.0 73 1.0 74 1.0 
72 
73 
74 75 1.0 76 1.0 77 1.0 
75 
76 
77 78 1.0 79 1.0 80 1.0 
78 
79 
80 81 1.0 82 1.0 
81 
82 83 2.0 96 1.0 
83 
84 86 1.0 87 1.0 88 1.0 96 1.0 
85 89 1.0 90 1.0 91 1.0 96 1.0 
86 89 1.0 92 1.0 93 1.0 
87 
88 
89 94 1.0 95 1.0 
90 
91 
92 
93 
94 
95 
96 


