%mem=1GB
%nprocshared=12
#p geom=connect #p opt b3lyp m06-2x geom=connect scrf=(solvent=benzene) freq

00002

0 1
C   -1.109538  -2.037153   7.795445
O   -1.180715  -3.018122   7.051981
N    0.033905  -1.566300   8.278461
H    0.033950  -0.740925   8.860982
C   -4.476316  -1.575725   8.937222
C   -5.804094  -1.981151   8.686633
C   -6.178615  -2.370168   7.384715
C   -5.233216  -2.371663   6.332053
C   -3.905610  -1.980196   6.600120
C   -3.514802  -1.624233   7.910232
H   -4.181777  -1.307723   9.941227
H   -7.195750  -2.694477   7.216760
H   -3.174524  -2.006642   5.802797
N   -2.168025  -1.356092   8.239828
H   -2.007333  -0.656602   8.947764
C   -6.805826  -2.081577   9.821617
C   -5.575857  -2.864002   4.976391
O   -4.856043  -2.699919   3.990145
F   -6.199251  -2.064712  11.007006
F   -7.479830  -3.224573   9.720936
F   -7.661872  -1.065757   9.758126
O   -6.708695  -3.581978   4.974533
C   -7.113779  -4.298223   3.820399
H   -8.187543  -4.149143   3.705585
H   -6.655303  -3.920140   2.905321
C   -6.831303  -5.796987   3.999017
H   -7.360996  -6.325455   3.205554
H   -7.283342  -6.147995   4.927711
C   -5.340668  -6.188502   3.923413
H   -4.729085  -5.364872   3.552457
H   -5.253455  -6.961299   3.157118
C   -4.782195  -6.745542   5.249019
H   -5.479137  -7.465610   5.679508
C   -3.420058  -7.402937   4.963454
O   -2.410065  -6.692093   4.932167
C   -2.113542  -9.440284   4.476911
C   -4.494920  -9.656687   4.733001
C   -2.459867 -10.929000   4.531990
H   -1.335276  -9.183901   5.198045
H   -1.755508  -9.162671   3.484192
C   -3.944191 -10.978122   4.194971
H   -5.320535  -9.297661   4.116578
H   -4.861026  -9.784911   5.753127
H   -1.850814 -11.530586   3.856070
H   -2.301951 -11.304669   5.544190
H   -4.071745 -11.014661   3.111898
H   -4.446439 -11.849403   4.617354
N   -3.362617  -8.731017   4.744832
C   -4.637307  -5.785516   7.487938
O   -5.362089  -6.627502   8.016446
N   -4.514261  -5.652691   6.171965
H   -3.848834  -4.974310   5.833130
C   -4.791937  -4.976511  10.446421
C   -4.642641  -4.637391  11.808392
C   -3.406266  -4.132853  12.267604
C   -2.318422  -3.965611  11.380474
C   -2.478321  -4.340868  10.028239
C   -3.712410  -4.809308   9.549710
H   -5.755033  -5.315452  10.095059
H   -3.309550  -3.847459  13.305831
H   -1.663380  -4.230469   9.329495
N   -3.834416  -4.953022   8.149783
H   -3.177988  -4.415400   7.598853
C   -5.813379  -4.763217  12.768266
C   -1.057746  -3.335928  11.854717
O   -0.896262  -2.907963  12.998548
F   -6.971276  -4.877784  12.120477
F   -5.642687  -5.839490  13.531507
F   -5.880672  -3.688620  13.551835
O   -0.136644  -3.254659  10.884769
C    1.072125  -2.544722  11.079630
H    1.406847  -2.606797  12.116342
H    0.909227  -1.489712  10.859694
C    2.152832  -3.137000  10.164431
H    3.056300  -2.532171  10.247266
H    2.425884  -4.118762  10.552710
C    1.758357  -3.303598   8.678792
H    0.959113  -4.041252   8.596486
H    2.604917  -3.764993   8.171292
C    1.362096  -2.024029   7.901856
H    1.307691  -2.283568   6.843241
C    2.327253  -0.838419   8.035762
O    2.086922   0.015245   8.895936
C    4.366946   0.341398   7.301919
C    3.773977  -1.696582   6.171932
C    5.253864   0.200971   6.064020
H    3.875842   1.315790   7.331938
H    4.956188   0.234937   8.214152
C    5.172537  -1.278880   5.715156
H    3.771139  -2.733109   6.508483
H    3.063706  -1.604308   5.348658
H    6.275957   0.541483   6.234680
H    4.838922   0.792949   5.246710
H    5.923570  -1.829703   6.283694
H    5.348591  -1.475390   4.656763
N    3.404860  -0.756576   7.230250

1 2 2.0 3 1.0 14 1.0 
2 
3 4 1.0 
4 
5 6 1.5 10 1.5 11 1.0 
6 7 1.5 16 1.0 
7 8 1.5 12 1.0 
8 9 1.5 17 1.0 
9 10 1.5 13 1.0 
10 14 1.0 
11 
12 
13 
14 15 1.0 
15 
16 19 1.0 20 1.0 21 1.0 
17 18 2.0 22 1.0 
18 
19 
20 
21 
22 23 1.0 
23 24 1.0 25 1.0 26 1.0 
24 
25 
26 27 1.0 28 1.0 29 1.0 
27 
28 
29 30 1.0 31 1.0 32 1.0 
30 
31 
32 33 1.0 34 1.0 51 1.0 
33 
34 35 2.0 48 1.0 
35 
36 38 1.0 39 1.0 40 1.0 48 1.0 
37 41 1.0 42 1.0 43 1.0 48 1.0 
38 41 1.0 44 1.0 45 1.0 
39 
40 
41 46 1.0 47 1.0 
42 
43 
44 
45 
46 
47 
48 
49 50 2.0 51 1.0 62 1.0 
50 
51 52 1.0 
52 
53 54 1.5 58 1.5 59 1.0 
54 55 1.5 64 1.0 
55 56 1.5 60 1.0 
56 57 1.5 65 1.0 
57 58 1.5 61 1.0 
58 62 1.0 
59 
60 
61 
62 63 1.0 
63 
64 67 1.0 68 1.0 69 1.0 
65 66 2.0 70 1.0 
66 
67 
68 
69 
70 71 1.0 
71 72 1.0 73 1.0 74 1.0 
72 
73 
74 75 1.0 76 1.0 77 1.0 
75 
76 
77 78 1.0 79 1.0 80 1.0 
78 
79 
80 81 1.0 82 1.0 
81 
82 83 2.0 96 1.0 
83 
84 86 1.0 87 1.0 88 1.0 96 1.0 
85 89 1.0 90 1.0 91 1.0 96 1.0 
86 89 1.0 92 1.0 93 1.0 
87 
88 
89 94 1.0 95 1.0 
90 
91 
92 
93 
94 
95 
96 


