%mem=1GB
%nprocshared=12
#p geom=connect #p opt b3lyp m06-2x geom=connect scrf=(solvent=benzene) freq

00019

0 1
C   -0.780487  -1.351614   7.323773
O   -0.774738  -0.786052   6.231632
N    0.167588  -1.197366   8.232813
H    0.100454  -1.693622   9.109733
C   -4.030580  -2.923570   7.688803
C   -5.086112  -3.594084   7.040160
C   -4.933475  -3.992150   5.696224
C   -3.705444  -3.789597   5.021034
C   -2.661044  -3.105252   5.677051
C   -2.819080  -2.679904   7.014043
H   -4.145013  -2.650427   8.727853
H   -5.738964  -4.532825   5.220955
H   -1.710394  -2.981317   5.175530
N   -1.738310  -2.168380   7.760466
H   -1.705736  -2.436995   8.730954
C   -6.326821  -3.969153   7.827587
C   -3.443151  -4.401195   3.697051
O   -2.469991  -4.130373   2.992320
F   -5.968813  -4.426225   9.026250
F   -7.037293  -4.913047   7.210077
F   -7.090486  -2.892374   7.990232
O   -4.332617  -5.356845   3.410663
C   -4.113217  -6.226740   2.320646
H   -4.361418  -5.705775   1.395167
H   -3.065316  -6.525242   2.257956
C   -5.001207  -7.463387   2.492982
H   -4.969935  -8.018233   1.554615
H   -6.042337  -7.164069   2.620303
C   -4.575806  -8.423738   3.621272
H   -3.525792  -8.698673   3.511976
H   -5.121392  -9.352256   3.439775
C   -4.874982  -7.937641   5.062026
H   -5.651515  -7.174860   5.031643
C   -5.325176  -9.125862   5.939996
O   -4.472287  -9.935920   6.313103
C   -7.127457 -10.328588   7.122533
C   -7.714901  -8.362591   5.870755
C   -8.563871  -9.941916   7.477964
H   -6.516418 -10.457919   8.017801
H   -7.104856 -11.264644   6.562321
C   -9.003590  -9.047704   6.326682
H   -7.728899  -8.181446   4.794728
H   -7.593671  -7.405043   6.380001
H   -9.213586 -10.806996   7.616415
H   -8.569330  -9.370098   8.407319
H   -9.398533  -9.662756   5.516555
H   -9.780822  -8.338308   6.613827
N   -6.626294  -9.254283   6.268812
C   -3.642454  -6.769710   6.857622
O   -4.629486  -6.711291   7.588621
N   -3.689664  -7.296705   5.632006
H   -2.845603  -7.344868   5.086749
C   -2.756736  -5.540091   9.534909
C   -2.234968  -4.905472  10.678778
C   -0.891811  -4.475821  10.685446
C   -0.083542  -4.652559   9.543027
C   -0.625686  -5.274992   8.394370
C   -1.962557  -5.721431   8.376485
H   -3.790952  -5.840210   9.579679
H   -0.490437  -3.975817  11.556104
H   -0.012300  -5.394369   7.511539
N   -2.435137  -6.280042   7.157524
H   -1.740978  -6.357302   6.431589
C   -3.159774  -4.633820  11.850574
C    1.300666  -4.126991   9.542961
O    2.000376  -4.021946  10.550026
F   -2.499622  -4.171581  12.911325
F   -3.803004  -5.746277  12.199271
F   -4.052021  -3.721289  11.470667
O    1.654357  -3.718910   8.322693
C    2.869235  -3.029029   8.100588
H    3.641747  -3.767302   7.883505
H    3.200279  -2.460838   8.970727
C    2.656383  -2.109145   6.889390
H    3.560957  -2.146181   6.281608
H    1.874540  -2.514508   6.245109
C    2.370667  -0.620570   7.187848
H    2.129459  -0.141510   6.237960
H    3.308394  -0.159043   7.498999
C    1.260079  -0.245505   8.206347
H    0.828236   0.705597   7.890068
C    1.729776  -0.047853   9.653911
O    1.533638  -0.956781  10.466453
C    2.809935   1.368077  11.362620
C    2.561252   2.266044   9.145507
C    3.160567   2.856242  11.401958
H    2.064365   1.114327  12.118461
H    3.694940   0.756934  11.546980
C    3.459516   3.205941   9.950488
H    3.025796   2.005670   8.194553
H    1.605260   2.747532   8.933399
H    3.992307   3.077577  12.072006
H    2.296664   3.427426  11.745514
H    4.506361   2.990027   9.730988
H    3.283527   4.258084   9.722823
N    2.329308   1.106361  10.007359

1 2 2.0 3 1.0 14 1.0 
2 
3 4 1.0 
4 
5 6 1.5 10 1.5 11 1.0 
6 7 1.5 16 1.0 
7 8 1.5 12 1.0 
8 9 1.5 17 1.0 
9 10 1.5 13 1.0 
10 14 1.0 
11 
12 
13 
14 15 1.0 
15 
16 19 1.0 20 1.0 21 1.0 
17 18 2.0 22 1.0 
18 
19 
20 
21 
22 23 1.0 
23 24 1.0 25 1.0 26 1.0 
24 
25 
26 27 1.0 28 1.0 29 1.0 
27 
28 
29 30 1.0 31 1.0 32 1.0 
30 
31 
32 33 1.0 34 1.0 51 1.0 
33 
34 35 2.0 48 1.0 
35 
36 38 1.0 39 1.0 40 1.0 48 1.0 
37 41 1.0 42 1.0 43 1.0 48 1.0 
38 41 1.0 44 1.0 45 1.0 
39 
40 
41 46 1.0 47 1.0 
42 
43 
44 
45 
46 
47 
48 
49 50 2.0 51 1.0 62 1.0 
50 
51 52 1.0 
52 
53 54 1.5 58 1.5 59 1.0 
54 55 1.5 64 1.0 
55 56 1.5 60 1.0 
56 57 1.5 65 1.0 
57 58 1.5 61 1.0 
58 62 1.0 
59 
60 
61 
62 63 1.0 
63 
64 67 1.0 68 1.0 69 1.0 
65 66 2.0 70 1.0 
66 
67 
68 
69 
70 71 1.0 
71 72 1.0 73 1.0 74 1.0 
72 
73 
74 75 1.0 76 1.0 77 1.0 
75 
76 
77 78 1.0 79 1.0 80 1.0 
78 
79 
80 81 1.0 82 1.0 
81 
82 83 2.0 96 1.0 
83 
84 86 1.0 87 1.0 88 1.0 96 1.0 
85 89 1.0 90 1.0 91 1.0 96 1.0 
86 89 1.0 92 1.0 93 1.0 
87 
88 
89 94 1.0 95 1.0 
90 
91 
92 
93 
94 
95 
96 


