%mem=1GB
%nprocshared=12
#p geom=connect #p opt b3lyp m06-2x geom=connect scrf=(solvent=benzene) freq

00005

0 1
C   -1.794063  -2.932064   7.209843
O   -2.061738  -4.083868   6.880711
N   -0.550147  -2.505475   7.384175
H   -0.373208  -1.537519   7.611823
C   -4.835545  -1.160103   8.188746
C   -6.241714  -1.230039   8.241144
C   -6.919386  -2.175928   7.444335
C   -6.203794  -3.054855   6.601019
C   -4.790757  -2.965539   6.554535
C   -4.101443  -2.046956   7.379487
H   -4.322768  -0.450001   8.821052
H   -7.997203  -2.237440   7.502352
H   -4.234612  -3.631878   5.910852
N   -2.691035  -1.978754   7.470415
H   -2.322549  -1.110741   7.825219
C   -7.002918  -0.328023   9.195654
C   -6.944724  -4.094077   5.837828
O   -8.171828  -4.194357   5.836802
F   -6.269360  -0.089232  10.281037
F   -8.141582  -0.898146   9.583048
F   -7.277451   0.827293   8.596658
O   -6.122130  -4.950777   5.216069
C   -6.614028  -6.093369   4.533948
H   -7.613721  -5.901620   4.140861
H   -5.981899  -6.291001   3.668117
C   -6.635453  -7.320346   5.462235
H   -7.320251  -8.037575   5.008491
H   -7.095756  -7.073619   6.419486
C   -5.289600  -8.065220   5.659668
H   -4.918469  -8.392908   4.686566
H   -5.528751  -8.994882   6.177682
C   -4.145541  -7.388657   6.467730
H   -3.686813  -8.158484   7.086405
C   -3.110271  -6.740182   5.524300
O   -3.495948  -5.917541   4.691556
C   -0.773519  -6.475547   4.779119
C   -1.218370  -8.076443   6.512722
C    0.560133  -6.936817   5.365632
H   -0.890060  -6.833571   3.755129
H   -0.849961  -5.387098   4.762912
C    0.229124  -8.251551   6.052756
H   -1.743934  -9.031771   6.483029
H   -1.249479  -7.696181   7.534692
H    1.347198  -7.030044   4.616365
H    0.894071  -6.222882   6.115656
H    0.908378  -8.483534   6.874059
H    0.289657  -9.067202   5.330552
N   -1.808293  -7.084673   5.613118
C   -4.133540  -5.954649   8.463445
O   -3.105697  -6.452436   8.922840
N   -4.698048  -6.359093   7.331315
H   -5.478847  -5.848063   6.954271
C   -5.417802  -3.588390  10.947742
C   -5.068950  -2.623166  11.916959
C   -3.722048  -2.215671  12.036742
C   -2.721568  -2.772653  11.208031
C   -3.082359  -3.776560  10.281820
C   -4.430418  -4.161118  10.122543
H   -6.454439  -3.867855  10.828928
H   -3.465133  -1.449728  12.755034
H   -2.331122  -4.201769   9.633309
N   -4.843367  -4.994430   9.057797
H   -5.762303  -4.812296   8.688169
C   -6.141182  -2.001561  12.796426
C   -1.332316  -2.246162  11.260989
O   -0.994921  -1.280066  11.946818
F   -5.846527  -0.734252  13.080420
F   -7.328805  -2.029017  12.194107
F   -6.224270  -2.686225  13.933902
O   -0.503026  -2.911158  10.446338
C    0.807139  -2.434230  10.211190
H    1.282248  -2.138616  11.147999
H    0.762633  -1.545998   9.580945
C    1.636632  -3.539889   9.544199
H    2.618808  -3.138603   9.292672
H    1.823169  -4.319633  10.283368
C    1.002544  -4.201514   8.299979
H    0.115928  -4.763174   8.598664
H    1.701586  -4.961836   7.954521
C    0.649815  -3.277811   7.108946
H    0.415746  -3.910885   6.253167
C    1.748388  -2.305410   6.661423
O    1.726521  -1.153717   7.107953
C    3.761822  -1.843649   5.311884
C    2.822121  -4.053934   5.215420
C    4.418385  -2.594460   4.152992
H    3.377665  -0.873599   4.990935
H    4.477898  -1.670921   6.116897
C    4.154195  -4.060977   4.464480
H    2.806335  -4.841338   5.967903
H    1.995245  -4.221202   4.523204
H    3.927254  -2.325044   3.216610
H    5.480003  -2.366965   4.048386
H    4.940783  -4.442556   5.117439
H    4.132975  -4.687042   3.571507
N    2.701324  -2.720504   5.803610

1 2 2.0 3 1.0 14 1.0 
2 
3 4 1.0 
4 
5 6 1.5 10 1.5 11 1.0 
6 7 1.5 16 1.0 
7 8 1.5 12 1.0 
8 9 1.5 17 1.0 
9 10 1.5 13 1.0 
10 14 1.0 
11 
12 
13 
14 15 1.0 
15 
16 19 1.0 20 1.0 21 1.0 
17 18 2.0 22 1.0 
18 
19 
20 
21 
22 23 1.0 
23 24 1.0 25 1.0 26 1.0 
24 
25 
26 27 1.0 28 1.0 29 1.0 
27 
28 
29 30 1.0 31 1.0 32 1.0 
30 
31 
32 33 1.0 34 1.0 51 1.0 
33 
34 35 2.0 48 1.0 
35 
36 38 1.0 39 1.0 40 1.0 48 1.0 
37 41 1.0 42 1.0 43 1.0 48 1.0 
38 41 1.0 44 1.0 45 1.0 
39 
40 
41 46 1.0 47 1.0 
42 
43 
44 
45 
46 
47 
48 
49 50 2.0 51 1.0 62 1.0 
50 
51 52 1.0 
52 
53 54 1.5 58 1.5 59 1.0 
54 55 1.5 64 1.0 
55 56 1.5 60 1.0 
56 57 1.5 65 1.0 
57 58 1.5 61 1.0 
58 62 1.0 
59 
60 
61 
62 63 1.0 
63 
64 67 1.0 68 1.0 69 1.0 
65 66 2.0 70 1.0 
66 
67 
68 
69 
70 71 1.0 
71 72 1.0 73 1.0 74 1.0 
72 
73 
74 75 1.0 76 1.0 77 1.0 
75 
76 
77 78 1.0 79 1.0 80 1.0 
78 
79 
80 81 1.0 82 1.0 
81 
82 83 2.0 96 1.0 
83 
84 86 1.0 87 1.0 88 1.0 96 1.0 
85 89 1.0 90 1.0 91 1.0 96 1.0 
86 89 1.0 92 1.0 93 1.0 
87 
88 
89 94 1.0 95 1.0 
90 
91 
92 
93 
94 
95 
96 


