%mem=1GB
%nprocshared=12
#p geom=connect #p opt b3lyp m06-2x geom=connect scrf=(solvent=benzene) freq

00026

0 1
O   -3.564943  -1.300876  -4.851916
C   -4.546948  -2.128518  -5.462616
H   -4.068925  -2.638576  -6.299071
H   -5.347346  -1.522797  -5.890493
C   -5.121783  -3.178391  -4.493514
H   -5.787090  -2.693681  -3.780907
H   -5.753545  -3.861857  -5.061313
C   -4.035465  -3.980228  -3.750936
H   -3.338594  -4.386529  -4.485447
H   -3.443198  -3.313159  -3.130085
C   -4.588295  -5.142521  -2.896343
H   -5.146756  -5.782084  -3.580299
C   -3.474762  -6.024971  -2.274043
O   -2.320850  -5.591403  -2.201583
C   -2.817992  -8.167029  -1.224727
C   -5.125039  -7.864037  -1.835710
C   -3.534388  -9.511086  -1.085026
H   -2.523820  -7.781453  -0.247205
H   -1.917209  -8.255255  -1.834898
C   -5.008782  -9.139603  -0.999189
H   -5.393816  -8.106707  -2.864912
H   -5.892014  -7.201764  -1.431610
H   -3.360255 -10.113633  -1.977880
H   -3.190684 -10.086343  -0.224403
H   -5.667919  -9.935850  -1.347422
H   -5.270681  -8.922377   0.037572
N   -3.794676  -7.254815  -1.817838
O   -5.533299  -4.698081  -1.908033
C   -5.068509  -3.961401  -0.775130
H   -3.995371  -4.042079  -0.604645
H   -5.552258  -4.381101   0.107363
C   -5.477862  -2.494325  -0.924081
H   -4.966539  -2.091251  -1.794237
H   -6.541576  -2.434786  -1.156730
C   -5.182312  -1.632588   0.318770
H   -4.637592  -2.204927   1.071367
H   -6.135507  -1.388048   0.790961
C   -4.413015  -0.341013  -0.029128
H   -4.542504  -0.106540  -1.081463
C   -4.848398   0.882572   0.776320
O   -4.292528   1.114534   1.853720
C   -6.152725   2.966295   0.885215
C   -6.635565   1.420776  -0.891374
C   -7.163021   3.614026  -0.060769
H   -5.279871   3.604203   1.015090
H   -6.593779   2.785846   1.866959
C   -7.770446   2.440895  -0.817680
H   -7.022891   0.400651  -0.897236
H   -6.067420   1.570227  -1.807619
H   -7.908911   4.212647   0.463659
H   -6.642817   4.270763  -0.759810
H   -8.601012   2.025687  -0.244597
H   -8.152216   2.721137  -1.800304
N   -5.793264   1.693277   0.272177
C   -2.104849  -1.227962  -0.414866
O   -2.378028  -2.041654  -1.291614
N   -2.994676  -0.479072   0.213904
H   -2.654512   0.146838   0.933376
C    0.501006  -2.816543  -0.856218
C    1.789187  -3.318118  -1.138098
C    2.929553  -2.546244  -0.813313
C    2.786920  -1.269008  -0.225764
C    1.490547  -0.785051   0.053379
C    0.352528  -1.537214  -0.276534
H   -0.353161  -3.422656  -1.121670
H    3.917144  -2.924306  -1.036157
H    1.357627   0.189555   0.504452
N   -0.880946  -0.913783  -0.007610
H   -0.818898  -0.060660   0.546460
C    1.915175  -4.664981  -1.825552
C    3.975305  -0.435638   0.090112
O    5.112305  -0.884339   0.240939
F    3.185637  -4.988080  -2.063114
F    1.265781  -4.622654  -2.986765
F    1.371338  -5.610550  -1.062824
O    3.650229   0.864944   0.195191
C    4.511341   1.809269   0.806010
H    4.373106   2.760177   0.291166
H    5.565930   1.544323   0.716404
C    4.076824   1.935974   2.273297
H    2.995707   1.798765   2.324217
H    4.510223   1.123066   2.856874
C    4.410516   3.294335   2.909152
H    3.965779   4.089693   2.310244
H    5.488225   3.460105   2.877797
C    3.918226   3.383298   4.372276
H    4.471786   2.629875   4.933482
C    4.190224   4.754979   5.039386
O    4.450014   5.733279   4.333730
C    4.369051   6.093542   7.112510
C    3.796342   3.764917   7.309129
C    4.426875   5.705461   8.590796
H    3.542224   6.780494   6.924865
H    5.290620   6.581778   6.790479
C    3.600421   4.428843   8.673281
H    4.628550   3.060197   7.344304
H    2.900997   3.218349   7.008969
H    5.458911   5.491990   8.873498
H    4.058646   6.492823   9.249738
H    3.895018   3.785581   9.503453
H    2.548007   4.683337   8.808644
N    4.125028   4.849737   6.384130
O    2.533304   3.010789   4.443136
C    1.552145   3.963167   4.041085
H    1.898147   4.589142   3.217578
H    1.319954   4.619489   4.881187
C    0.311007   3.182847   3.597653
H    0.544712   2.674746   2.663797
H    0.097504   2.400147   4.326672
C   -0.936169   4.067100   3.441319
H   -0.711587   4.932600   2.816090
H   -1.177147   4.474287   4.425117
C   -2.159255   3.307900   2.881569
H   -2.057486   2.251682   3.126191
C   -3.499006   3.809495   3.431880
O   -4.008243   4.802436   2.902748
C   -5.341801   3.619154   5.058536
C   -3.572958   1.994419   5.168504
C   -5.464006   2.870192   6.385040
H   -6.158571   3.352537   4.386017
H   -5.369052   4.700105   5.208055
C   -4.661874   1.595184   6.166283
H   -2.647881   2.253289   5.686195
H   -3.367551   1.164785   4.490642
H   -5.005800   3.458592   7.181525
H   -6.499475   2.677226   6.668337
H   -4.257343   1.184726   7.092336
H   -5.303656   0.833927   5.719706
N   -4.082514   3.173925   4.467584
C   -1.698020   2.572773   0.571384
O   -0.934952   1.663274   0.899586
N   -2.226555   3.422582   1.435045
H   -2.864794   4.135885   1.112650
C   -0.549182   1.559686  -2.087570
C   -0.315517   0.609390  -3.102652
C   -1.408391   0.045011  -3.791367
C   -2.734584   0.440186  -3.494084
C   -2.944603   1.447070  -2.528206
C   -1.869087   1.942303  -1.772172
H    0.281629   1.948190  -1.516856
H   -1.208259  -0.726444  -4.521030
H   -3.948638   1.759502  -2.288106
N   -2.162654   2.757235  -0.664357
H   -2.885912   3.448184  -0.792234
C    1.088204   0.121529  -3.405327
C   -3.911801  -0.248995  -4.088554
O   -5.077498   0.080918  -3.861690
F    1.420093   0.459441  -4.648286
F    1.129155  -1.202772  -3.297610
F    1.986242   0.636086  -2.569518

1 2 1.0 
2 3 1.0 4 1.0 5 1.0 
3 
4 
5 6 1.0 7 1.0 8 1.0 
6 
7 
8 9 1.0 10 1.0 11 1.0 
9 
10 
11 12 1.0 13 1.0 28 1.0 
12 
13 14 2.0 27 1.0 
14 
15 17 1.0 18 1.0 19 1.0 27 1.0 
16 20 1.0 21 1.0 22 1.0 27 1.0 
17 20 1.0 23 1.0 24 1.0 
18 
19 
20 25 1.0 26 1.0 
21 
22 
23 
24 
25 
26 
27 
28 29 1.0 
29 30 1.0 31 1.0 32 1.0 
30 
31 
32 33 1.0 34 1.0 35 1.0 
33 
34 
35 36 1.0 37 1.0 38 1.0 
36 
37 
38 39 1.0 40 1.0 57 1.0 
39 
40 41 2.0 54 1.0 
41 
42 44 1.0 45 1.0 46 1.0 54 1.0 
43 47 1.0 48 1.0 49 1.0 54 1.0 
44 47 1.0 50 1.0 51 1.0 
45 
46 
47 52 1.0 53 1.0 
48 
49 
50 
51 
52 
53 
54 
55 56 2.0 57 1.0 68 1.0 
56 
57 58 1.0 
58 
59 60 1.5 64 1.5 65 1.0 
60 61 1.5 70 1.0 
61 62 1.5 66 1.0 
62 63 1.5 71 1.0 
63 64 1.5 67 1.0 
64 68 1.0 
65 
66 
67 
68 69 1.0 
69 
70 73 1.0 74 1.0 75 1.0 
71 72 2.0 76 1.0 
72 
73 
74 
75 
76 77 1.0 
77 78 1.0 79 1.0 80 1.0 
78 
79 
80 81 1.0 82 1.0 83 1.0 
81 
82 
83 84 1.0 85 1.0 86 1.0 
84 
85 
86 87 1.0 88 1.0 103 1.0 
87 
88 89 2.0 102 1.0 
89 
90 92 1.0 93 1.0 94 1.0 102 1.0 
91 95 1.0 96 1.0 97 1.0 102 1.0 
92 95 1.0 98 1.0 99 1.0 
93 
94 
95 100 1.0 101 1.0 
96 
97 
98 
99 
100 
101 
102 
103 104 1.0 
104 105 1.0 106 1.0 107 1.0 
105 
106 
107 108 1.0 109 1.0 110 1.0 
108 
109 
110 111 1.0 112 1.0 113 1.0 
111 
112 
113 114 1.0 115 1.0 132 1.0 
114 
115 116 2.0 129 1.0 
116 
117 119 1.0 120 1.0 121 1.0 129 1.0 
118 122 1.0 123 1.0 124 1.0 129 1.0 
119 122 1.0 125 1.0 126 1.0 
120 
121 
122 127 1.0 128 1.0 
123 
124 
125 
126 
127 
128 
129 
130 131 2.0 132 1.0 143 1.0 
131 
132 133 1.0 
133 
134 135 1.5 139 1.5 140 1.0 
135 136 1.5 145 1.0 
136 137 1.5 141 1.0 
137 138 1.5 146 1.0 
138 139 1.5 142 1.0 
139 143 1.0 
140 
141 
142 
143 144 1.0 
144 
145 148 1.0 149 1.0 150 1.0 
146 147 2.0 
147 
148 
149 
150 


