%mem=1GB
%nprocshared=12
#p geom=connect #p opt b3lyp m06-2x geom=connect scrf=(solvent=benzene) freq

00013

0 1
O   -4.351647  -1.615892  -4.474848
C   -5.044317  -2.766582  -4.932315
H   -4.650020  -3.029811  -5.913907
H   -6.105931  -2.552162  -5.064274
C   -4.836403  -3.938907  -3.958943
H   -5.423124  -3.743519  -3.061122
H   -5.255941  -4.848320  -4.389744
C   -3.357695  -4.172111  -3.578243
H   -2.805916  -4.513333  -4.454987
H   -2.886000  -3.235180  -3.285351
C   -3.201366  -5.195627  -2.437273
H   -3.584366  -6.142922  -2.817097
C   -1.732813  -5.406318  -1.992536
O   -0.899981  -4.521101  -2.207618
C   -0.069904  -6.844010  -0.855145
C   -2.335727  -7.628458  -1.003200
C   -0.101548  -8.307506  -0.415235
H    0.135194  -6.195325  -0.002711
H    0.695327  -6.667080  -1.612765
C   -1.562013  -8.553394  -0.062065
H   -2.616902  -8.161612  -1.912674
H   -3.246869  -7.260028  -0.528579
H    0.187354  -8.948091  -1.249923
H    0.576906  -8.514672   0.413325
H   -1.852677  -9.599857  -0.162836
H   -1.742410  -8.257163   0.972554
N   -1.412276  -6.546659  -1.346512
O   -4.039132  -4.819076  -1.335557
C   -3.604053  -3.747322  -0.503643
H   -3.219337  -2.911947  -1.087648
H   -2.811066  -4.104409   0.153376
C   -4.805742  -3.295789   0.325263
H   -5.538478  -2.806478  -0.317715
H   -5.298916  -4.190012   0.708434
C   -4.462636  -2.407909   1.532415
H   -3.700356  -2.873448   2.156412
H   -5.352274  -2.403155   2.164689
C   -4.127794  -0.935044   1.208684
H   -4.839331  -0.641608   0.442769
C   -4.281966  -0.005049   2.418997
O   -3.442392  -0.061759   3.319018
C   -5.618496   1.677696   3.638452
C   -6.322254   1.084403   1.432303
C   -6.536557   2.782634   3.124346
H   -6.139760   1.066569   4.376800
H   -4.730869   2.069661   4.125336
C   -7.303912   2.109235   1.999041
H   -6.842795   0.170063   1.142244
H   -5.835093   1.494980   0.551409
H   -7.186629   3.188024   3.900716
H   -5.950907   3.606507   2.718887
H   -8.175152   1.595049   2.408072
H   -7.660184   2.815584   1.248034
N   -5.330335   0.841113   2.479262
C   -1.659106  -1.254207   0.730730
O   -1.448167  -2.296011   1.347663
N   -2.847661  -0.684092   0.565981
H   -2.830472   0.171599   0.032502
C    0.953451  -2.242876  -0.480868
C    2.239431  -2.553468  -0.966797
C    3.156836  -1.511774  -1.218816
C    2.807433  -0.163264  -0.982396
C    1.515483   0.129550  -0.485910
C    0.586452  -0.900290  -0.239649
H    0.255888  -3.052902  -0.327237
H    4.137573  -1.753875  -1.603226
H    1.217484   1.155835  -0.320063
N   -0.714313  -0.516890   0.154576
H   -0.946100   0.465408   0.049955
C    2.611511  -4.000647  -1.237580
C    3.807197   0.904216  -1.265475
O    4.931225   0.677097  -1.717139
F    2.042180  -4.400650  -2.370741
F    3.930050  -4.156287  -1.348338
F    2.185933  -4.774477  -0.242542
O    3.369427   2.133009  -0.949851
C    4.260169   3.235700  -0.995443
H    4.402779   3.529886  -2.035932
H    5.239607   2.954882  -0.604277
C    3.704749   4.417862  -0.182326
H    4.364611   5.268957  -0.352404
H    2.732677   4.717659  -0.575290
C    3.620887   4.177281   1.342875
H    3.570002   5.143188   1.846017
H    4.546688   3.717558   1.691377
C    2.412221   3.315014   1.776929
H    2.498781   2.361536   1.268483
C    2.372769   2.971773   3.287670
O    2.932516   3.721058   4.092368
C    1.355935   1.629250   5.101122
C    1.023627   0.896508   2.842449
C    0.518999   0.346706   5.119181
H    0.778740   2.467049   5.496398
H    2.259355   1.530171   5.705048
C   -0.045592   0.239744   3.709370
H    0.587292   1.330819   1.948357
H    1.766633   0.162100   2.528630
H    1.164830  -0.509631   5.319050
H   -0.259081   0.360318   5.883472
H   -0.262370  -0.787517   3.414585
H   -0.972993   0.807936   3.638362
N    1.672688   1.889348   3.697718
O    1.180317   3.918050   1.351004
C    0.805006   5.175494   1.925266
H    1.080878   5.973510   1.235228
H    1.306501   5.395152   2.867530
C   -0.713080   5.157713   2.150132
H   -1.052900   6.127933   2.513844
H   -1.193212   5.010780   1.183969
C   -1.103585   4.053835   3.154266
H   -0.778785   4.354939   4.150531
H   -0.521125   3.165385   2.945956
C   -2.579824   3.603924   3.187201
H   -2.625315   2.645811   3.700758
C   -3.469156   4.624672   3.902642
O   -4.071798   5.463709   3.226083
C   -4.409316   5.504657   6.004601
C   -2.929538   3.612677   6.138930
C   -4.044878   5.282359   7.472530
H   -5.460157   5.270412   5.826447
H   -4.240639   6.540435   5.704214
C   -3.549482   3.843661   7.517444
H   -1.858052   3.814188   6.167009
H   -3.072259   2.575531   5.834083
H   -3.235377   5.957085   7.755468
H   -4.881005   5.465005   8.148729
H   -2.847774   3.662134   8.332582
H   -4.397252   3.170459   7.654727
N   -3.583027   4.570702   5.244379
C   -2.641203   2.585856   0.926235
O   -1.593969   1.960959   1.051545
N   -3.135453   3.381263   1.858945
H   -3.973484   3.914298   1.672831
C   -1.789549   1.751239  -1.848202
C   -1.454372   0.880449  -2.902687
C   -2.439285   0.023612  -3.426377
C   -3.762221   0.041489  -2.922634
C   -4.087234   0.928095  -1.875826
C   -3.094436   1.744943  -1.305034
H   -1.024409   2.389216  -1.429128
H   -2.148269  -0.656819  -4.213980
H   -5.090506   0.925080  -1.474560
N   -3.419347   2.484717  -0.148614
H   -4.327772   2.923030  -0.122103
C   -0.039536   0.809000  -3.446082
C   -4.791577  -0.903768  -3.422872
O   -5.897566  -1.048860  -2.899329
F    0.442484  -0.413989  -3.242920
F    0.768506   1.689548  -2.859225
F   -0.049730   1.050817  -4.754328

1 2 1.0 
2 3 1.0 4 1.0 5 1.0 
3 
4 
5 6 1.0 7 1.0 8 1.0 
6 
7 
8 9 1.0 10 1.0 11 1.0 
9 
10 
11 12 1.0 13 1.0 28 1.0 
12 
13 14 2.0 27 1.0 
14 
15 17 1.0 18 1.0 19 1.0 27 1.0 
16 20 1.0 21 1.0 22 1.0 27 1.0 
17 20 1.0 23 1.0 24 1.0 
18 
19 
20 25 1.0 26 1.0 
21 
22 
23 
24 
25 
26 
27 
28 29 1.0 
29 30 1.0 31 1.0 32 1.0 
30 
31 
32 33 1.0 34 1.0 35 1.0 
33 
34 
35 36 1.0 37 1.0 38 1.0 
36 
37 
38 39 1.0 40 1.0 57 1.0 
39 
40 41 2.0 54 1.0 
41 
42 44 1.0 45 1.0 46 1.0 54 1.0 
43 47 1.0 48 1.0 49 1.0 54 1.0 
44 47 1.0 50 1.0 51 1.0 
45 
46 
47 52 1.0 53 1.0 
48 
49 
50 
51 
52 
53 
54 
55 56 2.0 57 1.0 68 1.0 
56 
57 58 1.0 
58 
59 60 1.5 64 1.5 65 1.0 
60 61 1.5 70 1.0 
61 62 1.5 66 1.0 
62 63 1.5 71 1.0 
63 64 1.5 67 1.0 
64 68 1.0 
65 
66 
67 
68 69 1.0 
69 
70 73 1.0 74 1.0 75 1.0 
71 72 2.0 76 1.0 
72 
73 
74 
75 
76 77 1.0 
77 78 1.0 79 1.0 80 1.0 
78 
79 
80 81 1.0 82 1.0 83 1.0 
81 
82 
83 84 1.0 85 1.0 86 1.0 
84 
85 
86 87 1.0 88 1.0 103 1.0 
87 
88 89 2.0 102 1.0 
89 
90 92 1.0 93 1.0 94 1.0 102 1.0 
91 95 1.0 96 1.0 97 1.0 102 1.0 
92 95 1.0 98 1.0 99 1.0 
93 
94 
95 100 1.0 101 1.0 
96 
97 
98 
99 
100 
101 
102 
103 104 1.0 
104 105 1.0 106 1.0 107 1.0 
105 
106 
107 108 1.0 109 1.0 110 1.0 
108 
109 
110 111 1.0 112 1.0 113 1.0 
111 
112 
113 114 1.0 115 1.0 132 1.0 
114 
115 116 2.0 129 1.0 
116 
117 119 1.0 120 1.0 121 1.0 129 1.0 
118 122 1.0 123 1.0 124 1.0 129 1.0 
119 122 1.0 125 1.0 126 1.0 
120 
121 
122 127 1.0 128 1.0 
123 
124 
125 
126 
127 
128 
129 
130 131 2.0 132 1.0 143 1.0 
131 
132 133 1.0 
133 
134 135 1.5 139 1.5 140 1.0 
135 136 1.5 145 1.0 
136 137 1.5 141 1.0 
137 138 1.5 146 1.0 
138 139 1.5 142 1.0 
139 143 1.0 
140 
141 
142 
143 144 1.0 
144 
145 148 1.0 149 1.0 150 1.0 
146 147 2.0 
147 
148 
149 
150 


