%mem=1GB
%nprocshared=12
#p geom=connect #p opt b3lyp m06-2x geom=connect scrf=(solvent=benzene) freq

00001

0 1
O   -1.835559  -1.538041  -2.716118
C   -1.714765  -2.930405  -2.470068
H   -0.751741  -3.120523  -2.002884
H   -1.742939  -3.528080  -3.382272
C   -2.847291  -3.319417  -1.510525
H   -2.977188  -2.516265  -0.797269
H   -3.786381  -3.386627  -2.060607
C   -2.589385  -4.613652  -0.727427
H   -2.500359  -5.432832  -1.442659
H   -1.627394  -4.555468  -0.218353
C   -3.713673  -4.925213   0.289324
H   -4.653943  -4.769860  -0.240474
C   -3.721301  -6.398480   0.762813
O   -2.711555  -7.091527   0.613657
C   -4.949890  -8.258329   1.834046
C   -6.066074  -6.138304   1.611755
C   -6.421590  -8.446363   2.205248
H   -4.311352  -8.378280   2.710786
H   -4.630102  -8.984112   1.084153
C   -6.909847  -7.037668   2.516243
H   -6.582036  -5.955828   0.667883
H   -5.879027  -5.174991   2.088383
H   -6.968156  -8.842038   1.347756
H   -6.563282  -9.137980   3.036708
H   -7.981533  -6.914750   2.354578
H   -6.703421  -6.802297   3.561555
N   -4.834858  -6.884194   1.349672
O   -3.712700  -4.000494   1.391441
C   -2.764749  -4.197099   2.444829
H   -1.748990  -4.279517   2.056480
H   -2.981744  -5.126081   2.973043
C   -2.859121  -3.049016   3.467382
H   -3.902638  -2.815640   3.681870
H   -2.437827  -3.405638   4.408067
C   -2.080926  -1.783939   3.067693
H   -1.052891  -2.085451   2.871579
H   -2.011059  -1.115235   3.925433
C   -2.694022  -1.044925   1.855481
H   -3.045574  -1.799718   1.171406
C   -3.888649  -0.143636   2.176699
O   -3.982938   0.352379   3.299750
C   -5.844371   1.119908   1.371421
C   -4.849806  -0.502043  -0.095560
C   -6.415006   1.361482  -0.024274
H   -6.604620   0.692722   2.027337
H   -5.497561   2.046846   1.830422
C   -6.043876   0.116566  -0.820836
H   -5.002029  -1.576698   0.018168
H   -3.925884  -0.357628  -0.641258
H   -7.491785   1.534713  -0.005306
H   -5.961034   2.243140  -0.471897
H   -6.878927  -0.585453  -0.805972
H   -5.828100   0.339039  -1.866531
N   -4.773140   0.144876   1.206088
C   -0.731847  -0.837629   0.394380
O   -0.519107  -2.048582   0.361184
N   -1.694625  -0.285987   1.126436
H   -1.795060   0.718468   1.106300
C    1.573237  -1.281763  -1.598012
C    2.727676  -1.339139  -2.400190
C    3.474817  -0.164538  -2.627766
C    3.063913   1.070414  -2.075198
C    1.870265   1.117460  -1.314425
C    1.132607  -0.056052  -1.054151
H    1.042469  -2.203194  -1.431695
H    4.376756  -0.217013  -3.221204
H    1.524394   2.057662  -0.904450
N   -0.040731   0.079969  -0.275449
H   -0.382826   1.040011  -0.181182
C    3.138787  -2.673231  -2.995969
C    3.917192   2.274908  -2.279569
O    4.916648   2.285088  -3.000715
F    4.117877  -2.541402  -3.889834
F    3.552063  -3.481101  -2.022871
F    2.088696  -3.230963  -3.597050
O    3.515768   3.329776  -1.554000
C    4.341018   4.479172  -1.459882
H    4.386118   4.963450  -2.436320
H    5.359933   4.191586  -1.195517
C    3.785862   5.461045  -0.413784
H    4.364798   6.381927  -0.487934
H    2.764160   5.737509  -0.675578
C    3.853464   4.975356   1.053445
H    3.659829   5.828751   1.704262
H    4.869798   4.655002   1.285983
C    2.861499   3.839287   1.398346
H    3.142679   2.970563   0.809662
C    2.906444   3.374064   2.876513
O    3.339472   4.144430   3.737564
C    2.196903   1.741068   4.589755
C    1.972995   1.111345   2.286555
C    1.628160   0.321300   4.527365
H    1.488294   2.421897   5.062930
H    3.123499   1.775165   5.165274
C    1.079554   0.192167   3.115797
H    1.451041   1.497777   1.416743
H    2.849832   0.570179   1.928083
H    2.432175  -0.401534   4.673943
H    0.872588   0.134784   5.291775
H    1.082630  -0.837220   2.756017
H    0.052993   0.555499   3.094932
N    2.411475   2.159276   3.205185
O    1.532106   4.219543   1.013029
C    0.884586   5.278565   1.730656
H    1.006276   6.212933   1.181906
H    1.294733   5.452285   2.724726
C   -0.600806   4.915264   1.861700
H   -1.123657   5.666536   2.454379
H   -1.042594   4.946310   0.867448
C   -0.754377   3.522918   2.502566
H   -0.337877   3.560235   3.508013
H   -0.119417   2.825344   1.973713
C   -2.147712   2.870627   2.522323
H   -1.995767   1.811061   2.684486
C   -3.042154   3.399362   3.647675
O   -3.932279   4.208957   3.366700
C   -3.676868   3.384646   6.030011
C   -1.854115   1.973560   5.350516
C   -3.022004   2.800232   7.282548
H   -4.683878   2.984761   5.899290
H   -3.751975   4.472003   6.087141
C   -2.263238   1.584530   6.769745
H   -0.870250   2.439958   5.367283
H   -1.801280   1.088433   4.719172
H   -2.318165   3.522171   7.699631
H   -3.744373   2.552223   8.061220
H   -1.412354   1.317491   7.397758
H   -2.932858   0.723554   6.732985
N   -2.849641   2.952496   4.905837
C   -2.453775   2.711900   0.049579
O   -1.303043   2.368730  -0.192660
N   -2.871902   3.018267   1.266430
H   -3.810366   3.372350   1.393744
C   -4.272563   2.777926  -3.130919
C   -4.441328   2.134294  -4.375224
C   -3.804622   0.895664  -4.612854
C   -2.981541   0.308413  -3.626081
C   -2.759619   1.011210  -2.421813
C   -3.435418   2.218890  -2.147100
H   -4.812134   3.693492  -2.936811
H   -3.989340   0.373484  -5.541125
H   -2.148219   0.562462  -1.660449
N   -3.410490   2.811857  -0.863078
H   -4.249316   3.299510  -0.589972
C   -5.369237   2.741759  -5.412843
C   -2.462571  -1.076136  -3.812167
O   -2.662457  -1.747871  -4.825082
F   -5.227669   4.065990  -5.446128
F   -6.626516   2.454055  -5.085300
F   -5.122674   2.262147  -6.631205

1 2 1.0 
2 3 1.0 4 1.0 5 1.0 
3 
4 
5 6 1.0 7 1.0 8 1.0 
6 
7 
8 9 1.0 10 1.0 11 1.0 
9 
10 
11 12 1.0 13 1.0 28 1.0 
12 
13 14 2.0 27 1.0 
14 
15 17 1.0 18 1.0 19 1.0 27 1.0 
16 20 1.0 21 1.0 22 1.0 27 1.0 
17 20 1.0 23 1.0 24 1.0 
18 
19 
20 25 1.0 26 1.0 
21 
22 
23 
24 
25 
26 
27 
28 29 1.0 
29 30 1.0 31 1.0 32 1.0 
30 
31 
32 33 1.0 34 1.0 35 1.0 
33 
34 
35 36 1.0 37 1.0 38 1.0 
36 
37 
38 39 1.0 40 1.0 57 1.0 
39 
40 41 2.0 54 1.0 
41 
42 44 1.0 45 1.0 46 1.0 54 1.0 
43 47 1.0 48 1.0 49 1.0 54 1.0 
44 47 1.0 50 1.0 51 1.0 
45 
46 
47 52 1.0 53 1.0 
48 
49 
50 
51 
52 
53 
54 
55 56 2.0 57 1.0 68 1.0 
56 
57 58 1.0 
58 
59 60 1.5 64 1.5 65 1.0 
60 61 1.5 70 1.0 
61 62 1.5 66 1.0 
62 63 1.5 71 1.0 
63 64 1.5 67 1.0 
64 68 1.0 
65 
66 
67 
68 69 1.0 
69 
70 73 1.0 74 1.0 75 1.0 
71 72 2.0 76 1.0 
72 
73 
74 
75 
76 77 1.0 
77 78 1.0 79 1.0 80 1.0 
78 
79 
80 81 1.0 82 1.0 83 1.0 
81 
82 
83 84 1.0 85 1.0 86 1.0 
84 
85 
86 87 1.0 88 1.0 103 1.0 
87 
88 89 2.0 102 1.0 
89 
90 92 1.0 93 1.0 94 1.0 102 1.0 
91 95 1.0 96 1.0 97 1.0 102 1.0 
92 95 1.0 98 1.0 99 1.0 
93 
94 
95 100 1.0 101 1.0 
96 
97 
98 
99 
100 
101 
102 
103 104 1.0 
104 105 1.0 106 1.0 107 1.0 
105 
106 
107 108 1.0 109 1.0 110 1.0 
108 
109 
110 111 1.0 112 1.0 113 1.0 
111 
112 
113 114 1.0 115 1.0 132 1.0 
114 
115 116 2.0 129 1.0 
116 
117 119 1.0 120 1.0 121 1.0 129 1.0 
118 122 1.0 123 1.0 124 1.0 129 1.0 
119 122 1.0 125 1.0 126 1.0 
120 
121 
122 127 1.0 128 1.0 
123 
124 
125 
126 
127 
128 
129 
130 131 2.0 132 1.0 143 1.0 
131 
132 133 1.0 
133 
134 135 1.5 139 1.5 140 1.0 
135 136 1.5 145 1.0 
136 137 1.5 141 1.0 
137 138 1.5 146 1.0 
138 139 1.5 142 1.0 
139 143 1.0 
140 
141 
142 
143 144 1.0 
144 
145 148 1.0 149 1.0 150 1.0 
146 147 2.0 
147 
148 
149 
150 


