%mem=1GB
%nprocshared=12
#p geom=connect #p opt b3lyp m06-2x geom=connect scrf=(solvent=benzene) freq

00028

0 1
O   -5.370154  -0.792243  -4.851787
C   -6.611504  -1.256313  -5.365031
H   -6.480381  -1.513681  -6.416214
H   -7.376182  -0.478873  -5.326160
C   -7.048817  -2.497352  -4.571779
H   -7.184398  -2.220475  -3.525756
H   -8.026283  -2.831183  -4.920840
C   -6.037272  -3.652806  -4.692565
H   -6.104352  -4.076079  -5.695841
H   -5.018224  -3.275142  -4.610986
C   -6.249608  -4.767678  -3.645065
H   -7.264596  -5.144236  -3.774965
C   -5.284981  -5.964780  -3.836128
O   -4.271381  -5.824502  -4.526706
C   -4.728399  -8.326121  -3.350877
C   -6.719263  -7.403103  -2.364471
C   -5.526919  -9.466968  -2.718454
H   -3.797748  -8.157192  -2.806663
H   -4.474744  -8.543072  -4.390078
C   -6.453393  -8.769889  -1.730999
H   -7.624816  -7.434140  -2.972232
H   -6.850431  -6.637791  -1.597991
H   -6.119783  -9.968326  -3.485079
H   -4.891402 -10.217619  -2.246878
H   -7.367861  -9.332095  -1.537586
H   -5.938186  -8.637401  -0.778251
N   -5.569495  -7.136435  -3.229160
O   -6.158731  -4.259612  -2.306060
C   -4.951702  -3.599339  -1.931629
H   -5.008753  -2.549967  -2.219815
H   -4.074413  -4.019851  -2.424241
C   -4.790491  -3.743787  -0.416788
H   -5.670357  -3.359172   0.099827
H   -4.750956  -4.808828  -0.184577
C   -3.510054  -3.081470   0.113350
H   -2.701213  -3.281572  -0.587532
H   -3.225461  -3.595180   1.032910
C   -3.640965  -1.559894   0.390641
H   -4.141763  -1.159369  -0.487549
C   -4.476335  -1.199073   1.627663
O   -4.461382  -1.955784   2.599606
C   -5.994105   0.387374   2.766207
C   -5.244254   0.927646   0.558091
C   -6.215174   1.883822   2.545609
H   -6.943547  -0.149731   2.762366
H   -5.506803   0.192799   3.723346
C   -6.169792   2.043693   1.033367
H   -5.602257   0.505708  -0.381920
H   -4.243176   1.310274   0.417806
H   -7.147860   2.242026   2.982951
H   -5.398863   2.447176   3.000060
H   -7.168215   1.889046   0.621104
H   -5.835094   3.034111   0.722626
N   -5.199009  -0.061391   1.626574
C   -1.207565  -1.304579   0.903656
O   -1.060661  -2.364126   1.508691
N   -2.364248  -0.855552   0.422516
H   -2.361599   0.039801  -0.037833
C    1.565091  -2.029245  -0.025122
C    2.933262  -2.299400  -0.209988
C    3.891737  -1.353062   0.215485
C    3.487966  -0.127778   0.796382
C    2.109499   0.159637   0.899486
C    1.150223  -0.799486   0.526588
H    0.847046  -2.772151  -0.339797
H    4.943722  -1.578647   0.111887
H    1.787751   1.109511   1.300827
N   -0.210190  -0.460969   0.656458
H   -0.424825   0.492738   0.396313
C    3.338116  -3.612046  -0.854839
C    4.512747   0.806420   1.333006
O    5.721056   0.680195   1.125562
F    2.680904  -3.761666  -2.003738
F    3.016558  -4.617641  -0.044787
F    4.645808  -3.664173  -1.104495
O    3.986360   1.754061   2.132413
C    4.847858   2.515476   2.961017
H    5.493561   3.159864   2.362731
H    5.497448   1.830588   3.508944
C    4.022187   3.328483   3.966737
H    3.097257   2.802893   4.209880
H    4.584949   3.387503   4.898960
C    3.724943   4.761134   3.495618
H    3.257125   4.746796   2.511673
H    4.677344   5.276864   3.362755
C    2.848172   5.536431   4.507909
H    3.209912   5.273692   5.502384
C    2.967521   7.079128   4.403397
O    3.443408   7.583523   3.382629
C    2.610878   9.299280   5.435247
C    1.931500   7.350571   6.671796
C    2.249396   9.731754   6.857056
H    1.889385   9.691098   4.716444
H    3.600441   9.658658   5.147153
C    1.391061   8.590502   7.386378
H    1.135360   6.627040   6.489985
H    2.698751   6.866177   7.277691
H    3.157191   9.815265   7.456658
H    1.740575  10.696006   6.889633
H    1.426075   8.501935   8.472975
H    0.350622   8.753259   7.100607
N    2.536123   7.839195   5.432207
O    1.485638   5.091446   4.433544
C    0.712273   5.501143   3.304300
H    1.261611   6.140702   2.612913
H   -0.141926   6.082807   3.652670
C    0.240686   4.268014   2.535017
H   -0.245205   4.611115   1.622004
H    1.108119   3.687937   2.217977
C   -0.726182   3.375673   3.329877
H   -1.636003   3.925677   3.574763
H   -0.262035   3.119819   4.283864
C   -1.066023   2.081042   2.578174
H   -0.125047   1.637548   2.274534
C   -1.831949   1.054245   3.407336
O   -3.058159   1.148930   3.447683
C   -1.851415  -1.012393   4.744937
C    0.281286  -0.080223   4.163895
C   -0.775222  -1.724311   5.563570
H   -2.277420  -1.695129   4.009248
H   -2.663949  -0.650106   5.377222
C    0.506159  -1.454393   4.789982
H    0.666031   0.707700   4.813203
H    0.811078  -0.024714   3.219302
H   -0.708642  -1.274709   6.555430
H   -0.977295  -2.788489   5.691527
H    1.398617  -1.495347   5.415504
H    0.618246  -2.199648   4.000051
N   -1.168595   0.068112   4.039673
C   -1.373224   2.429896   0.164120
O   -0.171742   2.372181  -0.085268
N   -1.863774   2.359377   1.393708
H   -2.862398   2.341965   1.548945
C   -1.403230   0.569137  -2.139226
C   -1.668034  -0.547596  -2.949133
C   -2.940155  -0.692519  -3.537222
C   -3.961357   0.256059  -3.285297
C   -3.700128   1.329132  -2.406685
C   -2.438004   1.469792  -1.800942
H   -0.417549   0.645963  -1.711089
H   -3.132248  -1.565183  -4.145089
H   -4.497157   2.018232  -2.159896
N   -2.323110   2.422457  -0.762730
H   -3.198895   2.837273  -0.481718
C   -0.632583  -1.648437  -3.060924
C   -5.329421   0.092792  -3.842350
O   -6.315620   0.685924  -3.402130
F   -0.662672  -2.215362  -4.264656
F   -0.918619  -2.564665  -2.141560
F    0.596276  -1.194326  -2.825400

1 2 1.0 
2 3 1.0 4 1.0 5 1.0 
3 
4 
5 6 1.0 7 1.0 8 1.0 
6 
7 
8 9 1.0 10 1.0 11 1.0 
9 
10 
11 12 1.0 13 1.0 28 1.0 
12 
13 14 2.0 27 1.0 
14 
15 17 1.0 18 1.0 19 1.0 27 1.0 
16 20 1.0 21 1.0 22 1.0 27 1.0 
17 20 1.0 23 1.0 24 1.0 
18 
19 
20 25 1.0 26 1.0 
21 
22 
23 
24 
25 
26 
27 
28 29 1.0 
29 30 1.0 31 1.0 32 1.0 
30 
31 
32 33 1.0 34 1.0 35 1.0 
33 
34 
35 36 1.0 37 1.0 38 1.0 
36 
37 
38 39 1.0 40 1.0 57 1.0 
39 
40 41 2.0 54 1.0 
41 
42 44 1.0 45 1.0 46 1.0 54 1.0 
43 47 1.0 48 1.0 49 1.0 54 1.0 
44 47 1.0 50 1.0 51 1.0 
45 
46 
47 52 1.0 53 1.0 
48 
49 
50 
51 
52 
53 
54 
55 56 2.0 57 1.0 68 1.0 
56 
57 58 1.0 
58 
59 60 1.5 64 1.5 65 1.0 
60 61 1.5 70 1.0 
61 62 1.5 66 1.0 
62 63 1.5 71 1.0 
63 64 1.5 67 1.0 
64 68 1.0 
65 
66 
67 
68 69 1.0 
69 
70 73 1.0 74 1.0 75 1.0 
71 72 2.0 76 1.0 
72 
73 
74 
75 
76 77 1.0 
77 78 1.0 79 1.0 80 1.0 
78 
79 
80 81 1.0 82 1.0 83 1.0 
81 
82 
83 84 1.0 85 1.0 86 1.0 
84 
85 
86 87 1.0 88 1.0 103 1.0 
87 
88 89 2.0 102 1.0 
89 
90 92 1.0 93 1.0 94 1.0 102 1.0 
91 95 1.0 96 1.0 97 1.0 102 1.0 
92 95 1.0 98 1.0 99 1.0 
93 
94 
95 100 1.0 101 1.0 
96 
97 
98 
99 
100 
101 
102 
103 104 1.0 
104 105 1.0 106 1.0 107 1.0 
105 
106 
107 108 1.0 109 1.0 110 1.0 
108 
109 
110 111 1.0 112 1.0 113 1.0 
111 
112 
113 114 1.0 115 1.0 132 1.0 
114 
115 116 2.0 129 1.0 
116 
117 119 1.0 120 1.0 121 1.0 129 1.0 
118 122 1.0 123 1.0 124 1.0 129 1.0 
119 122 1.0 125 1.0 126 1.0 
120 
121 
122 127 1.0 128 1.0 
123 
124 
125 
126 
127 
128 
129 
130 131 2.0 132 1.0 143 1.0 
131 
132 133 1.0 
133 
134 135 1.5 139 1.5 140 1.0 
135 136 1.5 145 1.0 
136 137 1.5 141 1.0 
137 138 1.5 146 1.0 
138 139 1.5 142 1.0 
139 143 1.0 
140 
141 
142 
143 144 1.0 
144 
145 148 1.0 149 1.0 150 1.0 
146 147 2.0 
147 
148 
149 
150 


