%mem=1GB
%nprocshared=12
#p geom=connect #p opt b3lyp m06-2x geom=connect scrf=(solvent=benzene) freq

00006

0 1
O   -4.055147  -1.132009  -4.112877
C   -3.953448  -2.437193  -4.669790
H   -3.049121  -2.513889  -5.274939
H   -4.799414  -2.616010  -5.335969
C   -3.965423  -3.508554  -3.575849
H   -4.832704  -3.356370  -2.932738
H   -4.103542  -4.483431  -4.044360
C   -2.674557  -3.539049  -2.743882
H   -1.822895  -3.684268  -3.409832
H   -2.517547  -2.560137  -2.290514
C   -2.671641  -4.670628  -1.683369
H   -2.665043  -5.618797  -2.221937
C   -1.411254  -4.634465  -0.774414
O   -0.693967  -3.629938  -0.768917
C   -0.010168  -5.731456   0.939431
C   -1.917064  -6.930789   0.098900
C    0.067899  -7.170246   1.447447
H   -0.215385  -5.045871   1.761906
H    0.921721  -5.420848   0.463555
C   -1.356537  -7.689787   1.303737
H   -1.772268  -7.505363  -0.817201
H   -2.985594  -6.746496   0.218563
H    0.736203  -7.749232   0.808228
H    0.444428  -7.237044   2.469059
H   -1.402682  -8.772589   1.180793
H   -1.929682  -7.433160   2.196144
N   -1.141290  -5.693911   0.015817
O   -3.895068  -4.633978  -0.922075
C   -3.970003  -3.600828   0.048012
H   -3.443833  -2.753449  -0.363405
H   -3.466101  -3.910457   0.964755
C   -5.403261  -3.160871   0.345074
H   -5.893130  -2.858574  -0.580975
H   -5.961112  -4.020899   0.716529
C   -5.489769  -2.018742   1.382703
H   -5.034047  -2.322073   2.324908
H   -6.545937  -1.888226   1.623287
C   -4.948416  -0.647317   0.902454
H   -5.351364  -0.523871  -0.098554
C   -5.350757   0.551499   1.769086
O   -4.909661   0.621633   2.917326
C   -6.378829   2.784510   1.939923
C   -6.783232   1.519363  -0.055069
C   -6.828928   3.761270   0.857718
H   -7.173890   2.622733   2.669358
H   -5.510741   3.161000   2.479141
C   -7.483482   2.872302  -0.190110
H   -7.502318   0.701081  -0.119303
H   -6.067645   1.385103  -0.860843
H   -7.504313   4.527688   1.240209
H   -5.965640   4.271010   0.430968
H   -8.543729   2.757785   0.040784
H   -7.410570   3.285633  -1.196980
N   -6.120084   1.527122   1.247682
C   -2.498509  -1.062041   1.407206
O   -2.617108  -1.780601   2.396455
N   -3.509723  -0.569460   0.696141
H   -3.227667   0.044258  -0.058923
C    0.338428  -2.070459   2.027590
C    1.678320  -2.498739   2.119457
C    2.653194  -1.923705   1.279534
C    2.311009  -0.903092   0.365372
C    0.962181  -0.487962   0.278530
C   -0.028375  -1.074840   1.093933
H   -0.389304  -2.530728   2.675733
H    3.678526  -2.254449   1.369590
H    0.683172   0.287602  -0.422537
N   -1.350546  -0.619109   0.901762
H   -1.453297   0.092739   0.181260
C    2.091787  -3.558444   3.122240
C    3.385285  -0.262439  -0.438717
O    4.502485  -0.758242  -0.592570
F    2.672467  -4.572125   2.485134
F    2.964152  -3.026561   3.974970
F    1.056554  -4.031760   3.813051
O    3.034592   0.957667  -0.888387
C    4.012817   1.846080  -1.414619
H    3.929960   1.831776  -2.501624
H    5.030655   1.536689  -1.172238
C    3.774781   3.275697  -0.889813
H    4.364799   3.957228  -1.503016
H    2.734918   3.558164  -1.058391
C    4.161447   3.519608   0.589181
H    4.058676   4.583760   0.803667
H    5.218936   3.292763   0.730498
C    3.327786   2.708196   1.603879
H    3.571828   1.663340   1.446329
C    3.663258   2.960893   3.091142
O    4.295230   3.970819   3.410196
C    3.464746   2.213361   5.443273
C    2.492903   0.832873   3.733830
C    3.045432   0.882313   6.070302
H    2.847668   3.030341   5.820730
H    4.507012   2.449518   5.665157
C    2.022532   0.320766   5.094336
H    1.653721   0.974311   3.053322
H    3.175698   0.114268   3.279210
H    3.905924   0.213475   6.123744
H    2.649845   0.996323   7.080379
H    1.942649  -0.766058   5.136457
H    1.042626   0.735538   5.328352
N    3.229078   2.068525   4.008346
O    1.932696   2.871797   1.334373
C    1.303256   4.099253   1.702163
H    1.702482   4.936106   1.128290
H    1.443863   4.328782   2.758598
C   -0.197161   3.932931   1.448125
H   -0.736338   4.747698   1.932786
H   -0.399772   4.016079   0.379935
C   -0.683623   2.567356   1.957146
H   -0.192849   2.362383   2.907598
H   -0.317528   1.802656   1.277548
C   -2.198978   2.406880   2.139465
H   -2.428928   1.360951   2.229755
C   -2.721178   3.041578   3.423962
O   -3.231793   4.164079   3.363177
C   -2.941618   2.933056   5.878119
C   -2.056144   1.006635   4.745435
C   -2.256420   2.044022   6.915528
H   -4.026340   2.898723   5.991178
H   -2.625538   3.973437   5.974451
C   -2.165801   0.684628   6.236870
H   -1.018638   0.962373   4.421385
H   -2.618036   0.273763   4.167195
H   -1.251755   2.420584   7.114459
H   -2.792769   2.010038   7.864628
H   -1.331535   0.083830   6.601393
H   -3.082976   0.122812   6.421021
N   -2.587281   2.363515   4.581972
C   -2.950205   2.411895  -0.226868
O   -2.191657   1.522309  -0.614026
N   -2.949817   2.901011   1.004063
H   -3.582428   3.651179   1.245177
C   -4.884362   3.718592  -3.015321
C   -5.317198   3.521024  -4.339460
C   -5.114525   2.267154  -4.951062
C   -4.510787   1.200696  -4.244515
C   -4.083947   1.412117  -2.910888
C   -4.255683   2.680996  -2.302124
H   -5.044396   4.683123  -2.555450
H   -5.444472   2.120792  -5.970026
H   -3.636930   0.593623  -2.365659
N   -3.907991   2.960941  -0.961336
H   -4.406344   3.727350  -0.537471
C   -5.994672   4.660057  -5.082759
C   -4.358485  -0.108938  -4.936398
O   -4.525456  -0.243261  -6.150818
F   -6.636759   4.229471  -6.167956
F   -5.079677   5.553075  -5.453063
F   -6.877043   5.257442  -4.283629

1 2 1.0 
2 3 1.0 4 1.0 5 1.0 
3 
4 
5 6 1.0 7 1.0 8 1.0 
6 
7 
8 9 1.0 10 1.0 11 1.0 
9 
10 
11 12 1.0 13 1.0 28 1.0 
12 
13 14 2.0 27 1.0 
14 
15 17 1.0 18 1.0 19 1.0 27 1.0 
16 20 1.0 21 1.0 22 1.0 27 1.0 
17 20 1.0 23 1.0 24 1.0 
18 
19 
20 25 1.0 26 1.0 
21 
22 
23 
24 
25 
26 
27 
28 29 1.0 
29 30 1.0 31 1.0 32 1.0 
30 
31 
32 33 1.0 34 1.0 35 1.0 
33 
34 
35 36 1.0 37 1.0 38 1.0 
36 
37 
38 39 1.0 40 1.0 57 1.0 
39 
40 41 2.0 54 1.0 
41 
42 44 1.0 45 1.0 46 1.0 54 1.0 
43 47 1.0 48 1.0 49 1.0 54 1.0 
44 47 1.0 50 1.0 51 1.0 
45 
46 
47 52 1.0 53 1.0 
48 
49 
50 
51 
52 
53 
54 
55 56 2.0 57 1.0 68 1.0 
56 
57 58 1.0 
58 
59 60 1.5 64 1.5 65 1.0 
60 61 1.5 70 1.0 
61 62 1.5 66 1.0 
62 63 1.5 71 1.0 
63 64 1.5 67 1.0 
64 68 1.0 
65 
66 
67 
68 69 1.0 
69 
70 73 1.0 74 1.0 75 1.0 
71 72 2.0 76 1.0 
72 
73 
74 
75 
76 77 1.0 
77 78 1.0 79 1.0 80 1.0 
78 
79 
80 81 1.0 82 1.0 83 1.0 
81 
82 
83 84 1.0 85 1.0 86 1.0 
84 
85 
86 87 1.0 88 1.0 103 1.0 
87 
88 89 2.0 102 1.0 
89 
90 92 1.0 93 1.0 94 1.0 102 1.0 
91 95 1.0 96 1.0 97 1.0 102 1.0 
92 95 1.0 98 1.0 99 1.0 
93 
94 
95 100 1.0 101 1.0 
96 
97 
98 
99 
100 
101 
102 
103 104 1.0 
104 105 1.0 106 1.0 107 1.0 
105 
106 
107 108 1.0 109 1.0 110 1.0 
108 
109 
110 111 1.0 112 1.0 113 1.0 
111 
112 
113 114 1.0 115 1.0 132 1.0 
114 
115 116 2.0 129 1.0 
116 
117 119 1.0 120 1.0 121 1.0 129 1.0 
118 122 1.0 123 1.0 124 1.0 129 1.0 
119 122 1.0 125 1.0 126 1.0 
120 
121 
122 127 1.0 128 1.0 
123 
124 
125 
126 
127 
128 
129 
130 131 2.0 132 1.0 143 1.0 
131 
132 133 1.0 
133 
134 135 1.5 139 1.5 140 1.0 
135 136 1.5 145 1.0 
136 137 1.5 141 1.0 
137 138 1.5 146 1.0 
138 139 1.5 142 1.0 
139 143 1.0 
140 
141 
142 
143 144 1.0 
144 
145 148 1.0 149 1.0 150 1.0 
146 147 2.0 
147 
148 
149 
150 


