%mem=1GB
%nprocshared=12
#p geom=connect #p opt b3lyp m06-2x geom=connect scrf=(solvent=benzene) freq

00007

0 1
O   -2.580337  -1.803617  -3.661256
C   -2.039770  -3.019554  -3.175777
H   -1.070148  -2.882816  -2.695575
H   -1.906052  -3.726830  -3.994379
C   -3.079474  -3.526582  -2.169826
H   -3.367588  -2.704856  -1.521600
H   -3.984578  -3.804988  -2.710853
C   -2.617668  -4.698112  -1.295231
H   -2.366324  -5.537674  -1.945148
H   -1.701894  -4.438956  -0.763961
C   -3.715539  -5.112848  -0.291519
H   -4.652864  -5.121242  -0.848534
C   -3.535941  -6.544962   0.269819
O   -2.433746  -7.094296   0.196865
C   -4.535347  -8.495312   1.416053
C   -5.926222  -6.571167   1.024464
C   -5.978741  -8.863681   1.762650
H   -3.915723  -8.472437   2.314031
H   -4.094111  -9.212934   0.722030
C   -6.667058  -7.520471   1.966862
H   -6.428352  -6.526639   0.056822
H   -5.893280  -5.561438   1.436439
H   -6.436286  -9.384917   0.920299
H   -6.051552  -9.514849   2.634667
H   -7.739515  -7.559247   1.771693
H   -6.529686  -7.192930   2.998622
N   -4.594311  -7.150366   0.847382
O   -3.861494  -4.114664   0.734915
C   -3.042960  -4.215018   1.899075
H   -1.993698  -4.357019   1.635046
H   -3.347314  -5.080605   2.488837
C   -3.222917  -2.968994   2.778782
H   -4.270867  -2.669833   2.819732
H   -2.954840  -3.246118   3.799114
C   -2.317509  -1.798271   2.373710
H   -1.309708  -2.194634   2.254052
H   -2.247099  -1.098253   3.207986
C   -2.771997  -1.045208   1.103693
H   -3.099192  -1.763079   0.362681
C   -3.854775   0.002254   1.377080
O   -3.578311   0.937899   2.130411
C   -6.117341   0.893287   1.026700
C   -5.537924  -1.160294  -0.081990
C   -7.263871   0.516528   0.089197
H   -6.438202   0.838163   2.068326
H   -5.764798   1.909061   0.838181
C   -7.049008  -0.963623  -0.195694
H   -5.318220  -2.152769   0.308578
H   -5.059680  -1.055292  -1.056689
H   -8.245019   0.726127   0.517005
H   -7.180599   1.087765  -0.833848
H   -7.550864  -1.556725   0.570448
H   -7.445604  -1.274632  -1.162665
N   -5.066932  -0.096316   0.800790
C   -0.635068  -0.867916  -0.122262
O   -0.541014  -2.076668  -0.327620
N   -1.654532  -0.329944   0.528367
H   -1.661279   0.683257   0.639796
C    1.819959  -1.262006  -1.898066
C    3.029512  -1.348511  -2.609797
C    3.928761  -0.264159  -2.579097
C    3.616570   0.915629  -1.865391
C    2.373559   1.001549  -1.189491
C    1.477134  -0.089772  -1.184694
H    1.159189  -2.111836  -1.952390
H    4.868630  -0.345417  -3.106842
H    2.107931   1.907343  -0.662199
N    0.250434   0.063089  -0.486926
H    0.010608   1.009361  -0.202550
C    3.346225  -2.615198  -3.386164
C    4.622514   2.015015  -1.833760
O    5.684926   1.977672  -2.458097
F    4.309682  -2.413502  -4.284217
F    3.743666  -3.560595  -2.538228
F    2.259660  -3.045224  -4.026794
O    4.276447   3.028971  -1.026832
C    5.215892   4.057346  -0.757215
H    5.460951   4.569022  -1.689155
H    6.142157   3.624531  -0.375928
C    4.655225   5.068904   0.254501
H    5.367889   5.891119   0.323804
H    3.738054   5.510725  -0.135495
C    4.428794   4.515449   1.679356
H    4.320738   5.359727   2.360974
H    5.322022   3.985770   2.012973
C    3.196112   3.590069   1.812156
H    3.377637   2.712796   1.198195
C    2.950544   3.055403   3.245019
O    3.406425   3.675501   4.209386
C    1.718281   1.504288   4.721517
C    1.665421   1.086442   2.355790
C    0.943754   0.208300   4.477887
H    1.065357   2.268777   5.144794
H    2.546138   1.351433   5.416009
C    0.560390   0.260139   3.007727
H    1.284625   1.641392   1.500598
H    2.468149   0.438522   2.000558
H    1.598571  -0.646555   4.653585
H    0.079313   0.102968   5.134813
H    0.475841  -0.733980   2.571320
H   -0.399283   0.766431   2.892903
N    2.188591   1.951742   3.412073
O    2.025074   4.245354   1.303548
C    1.561752   5.417135   1.984586
H    1.903736   6.301124   1.445559
H    1.939186   5.513118   3.002421
C    0.031105   5.366484   2.017460
H   -0.366331   6.256545   2.506301
H   -0.328772   5.389935   0.989317
C   -0.452250   4.099519   2.745645
H   -0.135935   4.144452   3.787546
H    0.065741   3.245522   2.330770
C   -1.949208   3.767334   2.654609
H   -2.051300   2.713574   2.900491
C   -2.847456   4.545675   3.618418
O   -3.463793   5.525270   3.187521
C   -3.743157   4.855796   5.896866
C   -2.287732   2.981015   5.506309
C   -3.348815   4.263240   7.250072
H   -4.799774   4.678920   5.689599
H   -3.571380   5.933378   5.868081
C   -2.872191   2.856970   6.914291
H   -1.212826   3.152866   5.560367
H   -2.459919   2.061632   4.944766
H   -2.524006   4.837335   7.675171
H   -4.166924   4.273564   7.971395
H   -2.154007   2.468588   7.637600
H   -3.725483   2.177030   6.897535
N   -2.941682   4.145204   4.903232
C   -2.159989   3.139858   0.275453
O   -1.233670   2.330385   0.300575
N   -2.457466   3.922814   1.302037
H   -3.202066   4.601677   1.227398
C   -4.650976   2.398675  -2.232276
C   -5.084564   1.425004  -3.157545
C   -4.179253   0.442622  -3.603129
C   -2.837667   0.448128  -3.160519
C   -2.401137   1.461354  -2.282924
C   -3.320609   2.399254  -1.763988
H   -5.359234   3.120783  -1.853631
H   -4.536323  -0.328109  -4.271701
H   -1.369762   1.467357  -1.967418
N   -2.986139   3.328898  -0.753399
H   -3.645323   4.082111  -0.636611
C   -6.523412   1.376581  -3.637273
C   -1.914571  -0.659436  -3.491349
O   -0.689386  -0.561075  -3.492136
F   -6.556155   1.504711  -4.961420
F   -7.266113   2.341686  -3.097863
F   -7.051220   0.200122  -3.309178

1 2 1.0 
2 3 1.0 4 1.0 5 1.0 
3 
4 
5 6 1.0 7 1.0 8 1.0 
6 
7 
8 9 1.0 10 1.0 11 1.0 
9 
10 
11 12 1.0 13 1.0 28 1.0 
12 
13 14 2.0 27 1.0 
14 
15 17 1.0 18 1.0 19 1.0 27 1.0 
16 20 1.0 21 1.0 22 1.0 27 1.0 
17 20 1.0 23 1.0 24 1.0 
18 
19 
20 25 1.0 26 1.0 
21 
22 
23 
24 
25 
26 
27 
28 29 1.0 
29 30 1.0 31 1.0 32 1.0 
30 
31 
32 33 1.0 34 1.0 35 1.0 
33 
34 
35 36 1.0 37 1.0 38 1.0 
36 
37 
38 39 1.0 40 1.0 57 1.0 
39 
40 41 2.0 54 1.0 
41 
42 44 1.0 45 1.0 46 1.0 54 1.0 
43 47 1.0 48 1.0 49 1.0 54 1.0 
44 47 1.0 50 1.0 51 1.0 
45 
46 
47 52 1.0 53 1.0 
48 
49 
50 
51 
52 
53 
54 
55 56 2.0 57 1.0 68 1.0 
56 
57 58 1.0 
58 
59 60 1.5 64 1.5 65 1.0 
60 61 1.5 70 1.0 
61 62 1.5 66 1.0 
62 63 1.5 71 1.0 
63 64 1.5 67 1.0 
64 68 1.0 
65 
66 
67 
68 69 1.0 
69 
70 73 1.0 74 1.0 75 1.0 
71 72 2.0 76 1.0 
72 
73 
74 
75 
76 77 1.0 
77 78 1.0 79 1.0 80 1.0 
78 
79 
80 81 1.0 82 1.0 83 1.0 
81 
82 
83 84 1.0 85 1.0 86 1.0 
84 
85 
86 87 1.0 88 1.0 103 1.0 
87 
88 89 2.0 102 1.0 
89 
90 92 1.0 93 1.0 94 1.0 102 1.0 
91 95 1.0 96 1.0 97 1.0 102 1.0 
92 95 1.0 98 1.0 99 1.0 
93 
94 
95 100 1.0 101 1.0 
96 
97 
98 
99 
100 
101 
102 
103 104 1.0 
104 105 1.0 106 1.0 107 1.0 
105 
106 
107 108 1.0 109 1.0 110 1.0 
108 
109 
110 111 1.0 112 1.0 113 1.0 
111 
112 
113 114 1.0 115 1.0 132 1.0 
114 
115 116 2.0 129 1.0 
116 
117 119 1.0 120 1.0 121 1.0 129 1.0 
118 122 1.0 123 1.0 124 1.0 129 1.0 
119 122 1.0 125 1.0 126 1.0 
120 
121 
122 127 1.0 128 1.0 
123 
124 
125 
126 
127 
128 
129 
130 131 2.0 132 1.0 143 1.0 
131 
132 133 1.0 
133 
134 135 1.5 139 1.5 140 1.0 
135 136 1.5 145 1.0 
136 137 1.5 141 1.0 
137 138 1.5 146 1.0 
138 139 1.5 142 1.0 
139 143 1.0 
140 
141 
142 
143 144 1.0 
144 
145 148 1.0 149 1.0 150 1.0 
146 147 2.0 
147 
148 
149 
150 


