%mem=1GB
%nprocshared=12
#p geom=connect #p opt b3lyp m06-2x geom=connect scrf=(solvent=benzene) freq

00016

0 1
O   -3.843035  -1.238214  -4.885788
C   -4.849140  -1.976637  -5.569118
H   -4.397509  -2.439888  -6.446488
H   -5.625952  -1.306026  -5.940120
C   -5.460834  -3.062313  -4.667751
H   -5.937905  -2.593115  -3.806885
H   -6.260258  -3.568002  -5.209863
C   -4.428774  -4.102703  -4.199583
H   -4.060584  -4.651438  -5.067566
H   -3.552851  -3.602161  -3.785222
C   -5.003880  -5.102861  -3.169756
H   -5.832702  -5.617507  -3.656661
C   -3.982201  -6.186834  -2.744170
O   -2.781682  -6.018512  -2.976247
C   -3.553747  -8.383693  -1.689256
C   -5.823170  -7.590529  -1.777292
C   -4.480404  -9.526947  -1.272928
H   -2.957373  -8.040615  -0.842259
H   -2.867154  -8.692902  -2.479431
C   -5.777684  -8.831046  -0.883180
H   -6.380525  -7.800009  -2.691533
H   -6.310643  -6.759742  -1.265079
H   -4.659188 -10.182994  -2.126278
H   -4.066483 -10.135310  -0.467764
H   -6.653845  -9.470012  -1.000640
H   -5.728012  -8.525979   0.163311
N   -4.431294  -7.296381  -2.119898
O   -5.553893  -4.432550  -2.024331
C   -4.660865  -3.648669  -1.238664
H   -4.305552  -2.808869  -1.832259
H   -3.793087  -4.224115  -0.915193
C   -5.414151  -3.131452  -0.009291
H   -6.286482  -2.563719  -0.327746
H   -5.801845  -3.988575   0.542364
C   -4.538556  -2.292469   0.938396
H   -3.683586  -2.896413   1.245619
H   -5.099144  -2.122668   1.859464
C   -4.077840  -0.936976   0.345639
H   -4.345713  -0.861984  -0.706937
C   -4.613058   0.283321   1.099153
O   -4.032947   0.633446   2.130501
C   -6.042056   2.282155   1.120471
C   -6.560648   0.543298  -0.453918
C   -7.043878   2.835804   0.110543
H   -6.497512   2.165933   2.105341
H   -5.185716   2.947777   1.218783
C   -7.670321   1.593627  -0.506870
H   -6.978382  -0.441952  -0.251353
H   -6.041726   0.498667  -1.406766
H   -7.778696   3.501328   0.565346
H   -6.515837   3.400455  -0.659476
H   -8.513403   1.267611   0.104327
H   -8.041284   1.764566  -1.518380
N   -5.656008   0.972671   0.609121
C   -1.703348  -1.403754  -0.288415
O   -1.921284  -2.269952  -1.132181
N   -2.639485  -0.795650   0.423337
H   -2.342379  -0.098057   1.094548
C    1.086298  -2.557206  -0.956212
C    2.414209  -2.849921  -1.334471
C    3.437360  -1.903351  -1.093342
C    3.137733  -0.662112  -0.488734
C    1.805119  -0.389254  -0.111529
C    0.778631  -1.313657  -0.361672
H    0.321395  -3.291900  -1.159212
H    4.453456  -2.121216  -1.390079
H    1.554099   0.553581   0.356302
N   -0.513580  -0.893871   0.007795
H   -0.541605  -0.037888   0.561246
C    2.706566  -4.167501  -2.029318
C    4.200374   0.348861  -0.253342
O    5.401896   0.085038  -0.192680
F    2.303026  -5.178251  -1.262745
F    4.005105  -4.320911  -2.284452
F    2.040792  -4.211299  -3.181239
O    3.684142   1.582194  -0.108408
C    4.431172   2.647153   0.452432
H    4.091153   3.570056  -0.017709
H    5.501790   2.562440   0.260067
C    4.121086   2.676198   1.955841
H    3.084096   2.368409   2.097454
H    4.728200   1.931059   2.471049
C    4.297385   4.057237   2.605582
H    3.681056   4.784490   2.076129
H    5.328812   4.391429   2.485671
C    3.933704   4.036108   4.108174
H    4.645522   3.366496   4.591888
C    4.050417   5.418147   4.798680
O    4.093331   6.440486   4.109132
C    4.206170   6.721264   6.896132
C    4.017327   4.327985   7.056436
C    4.455318   6.313704   8.349099
H    3.270230   7.274791   6.804577
H    5.009213   7.354509   6.514694
C    3.845178   4.922304   8.455443
H    4.947437   3.760912   6.995118
H    3.193027   3.655490   6.814065
H    5.529048   6.257432   8.534913
H    4.031395   7.018939   9.065105
H    4.308257   4.314277   9.233662
H    2.782639   5.006461   8.689106
N    4.091577   5.471359   6.146650
O    2.635051   3.449504   4.283690
C    1.486575   4.245661   4.003990
H    1.662599   4.957922   3.196820
H    1.219722   4.815536   4.895318
C    0.354839   3.295197   3.601508
H    0.581658   2.892873   2.615623
H    0.338518   2.444049   4.283392
C   -1.028193   3.964571   3.613699
H   -1.007063   4.891859   3.039081
H   -1.242297   4.263000   4.641696
C   -2.155061   3.044649   3.098566
H   -1.881936   2.010072   3.300729
C   -3.519140   3.325479   3.740109
O   -4.206025   4.237883   3.269518
C   -5.210188   2.818634   5.461019
C   -3.212373   1.481533   5.420047
C   -5.138941   2.028161   6.767146
H   -6.014769   2.445824   4.825078
H   -5.392433   3.878737   5.646778
C   -4.166771   0.896900   6.463271
H   -2.307368   1.865651   5.893516
H   -2.925681   0.709332   4.704847
H   -4.729224   2.660640   7.556228
H   -6.114598   1.671869   7.100062
H   -3.650162   0.531827   7.351826
H   -4.710963   0.056801   6.028632
N   -3.935039   2.586241   4.787855
C   -1.774701   2.422825   0.741615
O   -0.874604   1.618108   0.983182
N   -2.328475   3.190263   1.664208
H   -3.077008   3.818766   1.409890
C   -0.792218   1.518610  -2.024886
C   -0.572950   0.655311  -3.118556
C   -1.674643   0.079587  -3.782671
C   -2.998225   0.381312  -3.384979
C   -3.200834   1.270870  -2.307790
C   -2.107419   1.791331  -1.593877
H    0.052838   1.930252  -1.492712
H   -1.481358  -0.602837  -4.597964
H   -4.204047   1.510776  -1.989965
N   -2.378192   2.550290  -0.439556
H   -3.189652   3.147417  -0.479603
C    0.832292   0.291930  -3.557742
C   -4.176880  -0.244502  -4.041076
O   -5.338436   0.095578  -3.811637
F    1.012921   0.656410  -4.824411
F    0.994083  -1.023917  -3.466069
F    1.760008   0.883969  -2.810263

1 2 1.0 
2 3 1.0 4 1.0 5 1.0 
3 
4 
5 6 1.0 7 1.0 8 1.0 
6 
7 
8 9 1.0 10 1.0 11 1.0 
9 
10 
11 12 1.0 13 1.0 28 1.0 
12 
13 14 2.0 27 1.0 
14 
15 17 1.0 18 1.0 19 1.0 27 1.0 
16 20 1.0 21 1.0 22 1.0 27 1.0 
17 20 1.0 23 1.0 24 1.0 
18 
19 
20 25 1.0 26 1.0 
21 
22 
23 
24 
25 
26 
27 
28 29 1.0 
29 30 1.0 31 1.0 32 1.0 
30 
31 
32 33 1.0 34 1.0 35 1.0 
33 
34 
35 36 1.0 37 1.0 38 1.0 
36 
37 
38 39 1.0 40 1.0 57 1.0 
39 
40 41 2.0 54 1.0 
41 
42 44 1.0 45 1.0 46 1.0 54 1.0 
43 47 1.0 48 1.0 49 1.0 54 1.0 
44 47 1.0 50 1.0 51 1.0 
45 
46 
47 52 1.0 53 1.0 
48 
49 
50 
51 
52 
53 
54 
55 56 2.0 57 1.0 68 1.0 
56 
57 58 1.0 
58 
59 60 1.5 64 1.5 65 1.0 
60 61 1.5 70 1.0 
61 62 1.5 66 1.0 
62 63 1.5 71 1.0 
63 64 1.5 67 1.0 
64 68 1.0 
65 
66 
67 
68 69 1.0 
69 
70 73 1.0 74 1.0 75 1.0 
71 72 2.0 76 1.0 
72 
73 
74 
75 
76 77 1.0 
77 78 1.0 79 1.0 80 1.0 
78 
79 
80 81 1.0 82 1.0 83 1.0 
81 
82 
83 84 1.0 85 1.0 86 1.0 
84 
85 
86 87 1.0 88 1.0 103 1.0 
87 
88 89 2.0 102 1.0 
89 
90 92 1.0 93 1.0 94 1.0 102 1.0 
91 95 1.0 96 1.0 97 1.0 102 1.0 
92 95 1.0 98 1.0 99 1.0 
93 
94 
95 100 1.0 101 1.0 
96 
97 
98 
99 
100 
101 
102 
103 104 1.0 
104 105 1.0 106 1.0 107 1.0 
105 
106 
107 108 1.0 109 1.0 110 1.0 
108 
109 
110 111 1.0 112 1.0 113 1.0 
111 
112 
113 114 1.0 115 1.0 132 1.0 
114 
115 116 2.0 129 1.0 
116 
117 119 1.0 120 1.0 121 1.0 129 1.0 
118 122 1.0 123 1.0 124 1.0 129 1.0 
119 122 1.0 125 1.0 126 1.0 
120 
121 
122 127 1.0 128 1.0 
123 
124 
125 
126 
127 
128 
129 
130 131 2.0 132 1.0 143 1.0 
131 
132 133 1.0 
133 
134 135 1.5 139 1.5 140 1.0 
135 136 1.5 145 1.0 
136 137 1.5 141 1.0 
137 138 1.5 146 1.0 
138 139 1.5 142 1.0 
139 143 1.0 
140 
141 
142 
143 144 1.0 
144 
145 148 1.0 149 1.0 150 1.0 
146 147 2.0 
147 
148 
149 
150 


