%mem=1GB
%nprocshared=12
#p geom=connect #p opt b3lyp m06-2x geom=connect scrf=(solvent=benzene) freq

00004

0 1
O   -3.850777  -0.767527  -4.280800
C   -4.776164  -1.742477  -4.742153
H   -4.500969  -2.003589  -5.764094
H   -5.783031  -1.324502  -4.784270
C   -4.744719  -3.006094  -3.862840
H   -5.277160  -2.787645  -2.937215
H   -5.312864  -3.801647  -4.345392
C   -3.316549  -3.497015  -3.541608
H   -2.829323  -3.825389  -4.460488
H   -2.710848  -2.670040  -3.174006
C   -3.283565  -4.639136  -2.505157
H   -3.719486  -5.518651  -2.980003
C   -1.843514  -5.001846  -2.053912
O   -0.910223  -4.236200  -2.313576
C   -0.341276  -6.563111  -0.861843
C   -2.682071  -7.101717  -0.972767
C   -0.531714  -7.988309  -0.343529
H   -0.042752  -5.895945  -0.052151
H    0.424059  -6.520091  -1.638181
C   -2.010163  -8.057807   0.013820
H   -3.017119  -7.640572  -1.860311
H   -3.550737  -6.624319  -0.517358
H   -0.313367  -8.700664  -1.140640
H    0.120582  -8.222174   0.498835
H   -2.411994  -9.070529  -0.037475
H   -2.156548  -7.694417   1.032290
N   -1.648929  -6.140295  -1.357329
O   -4.129646  -4.305391  -1.392626
C   -3.637219  -3.349982  -0.460571
H   -3.221760  -2.487062  -0.978322
H   -2.850795  -3.812040   0.135693
C   -4.778713  -2.905497   0.457473
H   -5.456975  -2.239890  -0.077800
H   -5.364965  -3.790662   0.707119
C   -4.317373  -2.271815   1.784052
H   -3.566990  -2.900351   2.262521
H   -5.162303  -2.333627   2.468706
C   -3.854805  -0.792689   1.704443
H   -4.627094  -0.237835   1.171648
C   -3.716462  -0.118199   3.082839
O   -2.596012   0.056483   3.563318
C   -4.790202   0.616048   5.176393
C   -6.198280   0.265340   3.259487
C   -6.237244   0.895721   5.593169
H   -4.389351  -0.222636   5.748420
H   -4.144805   1.474267   5.363139
C   -7.087965   0.259915   4.501591
H   -6.452185  -0.566453   2.604620
H   -6.342611   1.184347   2.689053
H   -6.468292   0.498426   6.582378
H   -6.422317   1.968170   5.629096
H   -7.320786  -0.770010   4.776592
H   -8.033371   0.781072   4.345335
N   -4.824090   0.247547   3.760432
C   -1.530243  -1.283159   0.865321
O   -1.303333  -2.290485   1.532771
N   -2.662465  -0.586091   0.888848
H   -2.702710   0.244572   0.319338
C    1.060789  -2.500529  -0.353412
C    2.408712  -2.797399  -0.650982
C    3.337316  -1.744336  -0.838112
C    2.926728  -0.397633  -0.719465
C    1.578343  -0.132656  -0.407286
C    0.648137  -1.159572  -0.233184
H    0.356459  -3.310143  -0.231288
H    4.366831  -1.970811  -1.076390
H    1.235067   0.876067  -0.287320
N   -0.678734  -0.758064  -0.004998
H   -0.956743   0.109951  -0.435414
C    2.829762  -4.249343  -0.780786
C    3.877277   0.731591  -0.913269
O    5.083788   0.594812  -1.114933
F    2.328856  -4.753319  -1.905096
F    4.155106  -4.377465  -0.807393
F    2.361347  -4.951203   0.248988
O    3.251830   1.920151  -0.831895
C    3.961964   3.140584  -0.880506
H    4.443248   3.230506  -1.855294
H    4.746257   3.169914  -0.122967
C    2.953230   4.287928  -0.680616
H    3.437336   5.209463  -1.005232
H    2.110568   4.153886  -1.359319
C    2.437104   4.521192   0.761920
H    1.776457   5.387773   0.723678
H    3.264729   4.834278   1.399638
C    1.654844   3.353616   1.417892
H    1.149818   2.822384   0.619481
C    2.535544   2.321140   2.165196
O    3.754026   2.500839   2.231764
C    2.782396   0.064884   3.102961
C    0.555987   0.938757   2.881348
C    1.800849  -1.076183   3.340535
H    3.292180   0.334998   4.029270
H    3.542200  -0.211678   2.369653
C    0.506482  -0.362519   3.680919
H    0.084230   1.728400   3.459644
H    0.038201   0.853264   1.932421
H    1.672582  -1.656444   2.426404
H    2.127094  -1.760413   4.124563
H   -0.363364  -0.980558   3.480835
H    0.491421  -0.129851   4.746686
N    1.974743   1.198148   2.656417
O    0.599026   3.873692   2.227759
C    0.916601   4.422136   3.502911
H    1.690492   5.182755   3.391024
H    1.308835   3.666005   4.183721
C   -0.339499   5.065124   4.119935
H   -0.008106   5.579635   5.022746
H   -0.703533   5.859251   3.470505
C   -1.478430   4.096163   4.543864
H   -2.008948   4.556343   5.379072
H   -1.043799   3.188476   4.963762
C   -2.544832   3.721128   3.484616
H   -3.180452   2.948446   3.907740
C   -3.384538   4.933939   3.016944
O   -2.878469   5.738777   2.229806
C   -5.478844   6.237587   3.113963
C   -5.387276   4.155141   4.303717
C   -6.694195   6.164466   4.038586
H   -5.780553   6.148628   2.069042
H   -4.944634   7.182337   3.230138
C   -6.820940   4.683571   4.367001
H   -4.938070   4.117772   5.297414
H   -5.378546   3.153584   3.874696
H   -6.493577   6.726012   4.952346
H   -7.596262   6.577974   3.585844
H   -7.295943   4.502707   5.332062
H   -7.425380   4.190289   3.604026
N   -4.646091   5.089350   3.463417
C   -2.443673   2.641492   1.269888
O   -3.646865   2.400578   1.180981
N   -1.870313   3.115211   2.360902
H   -0.877588   3.332953   2.316839
C   -0.535716   2.006746  -1.798189
C   -0.488439   1.298962  -3.010410
C   -1.636192   0.617490  -3.457583
C   -2.833306   0.646954  -2.701953
C   -2.854936   1.343556  -1.476256
C   -1.686896   1.977970  -0.995744
H    0.357847   2.504086  -1.456265
H   -1.570286   0.054908  -4.377886
H   -3.768474   1.320601  -0.900528
N   -1.536441   2.478401   0.312132
H   -0.617838   2.821469   0.547775
C    0.824289   1.176579  -3.758599
C   -4.044008  -0.104359  -3.126068
O   -5.081985  -0.157016  -2.463786
F    1.654374   2.174211  -3.457558
F    0.624089   1.169680  -5.074834
F    1.396974   0.030942  -3.400742

1 2 1.0 
2 3 1.0 4 1.0 5 1.0 
3 
4 
5 6 1.0 7 1.0 8 1.0 
6 
7 
8 9 1.0 10 1.0 11 1.0 
9 
10 
11 12 1.0 13 1.0 28 1.0 
12 
13 14 2.0 27 1.0 
14 
15 17 1.0 18 1.0 19 1.0 27 1.0 
16 20 1.0 21 1.0 22 1.0 27 1.0 
17 20 1.0 23 1.0 24 1.0 
18 
19 
20 25 1.0 26 1.0 
21 
22 
23 
24 
25 
26 
27 
28 29 1.0 
29 30 1.0 31 1.0 32 1.0 
30 
31 
32 33 1.0 34 1.0 35 1.0 
33 
34 
35 36 1.0 37 1.0 38 1.0 
36 
37 
38 39 1.0 40 1.0 57 1.0 
39 
40 41 2.0 54 1.0 
41 
42 44 1.0 45 1.0 46 1.0 54 1.0 
43 47 1.0 48 1.0 49 1.0 54 1.0 
44 47 1.0 50 1.0 51 1.0 
45 
46 
47 52 1.0 53 1.0 
48 
49 
50 
51 
52 
53 
54 
55 56 2.0 57 1.0 68 1.0 
56 
57 58 1.0 
58 
59 60 1.5 64 1.5 65 1.0 
60 61 1.5 70 1.0 
61 62 1.5 66 1.0 
62 63 1.5 71 1.0 
63 64 1.5 67 1.0 
64 68 1.0 
65 
66 
67 
68 69 1.0 
69 
70 73 1.0 74 1.0 75 1.0 
71 72 2.0 76 1.0 
72 
73 
74 
75 
76 77 1.0 
77 78 1.0 79 1.0 80 1.0 
78 
79 
80 81 1.0 82 1.0 83 1.0 
81 
82 
83 84 1.0 85 1.0 86 1.0 
84 
85 
86 87 1.0 88 1.0 103 1.0 
87 
88 89 2.0 102 1.0 
89 
90 92 1.0 93 1.0 94 1.0 102 1.0 
91 95 1.0 96 1.0 97 1.0 102 1.0 
92 95 1.0 98 1.0 99 1.0 
93 
94 
95 100 1.0 101 1.0 
96 
97 
98 
99 
100 
101 
102 
103 104 1.0 
104 105 1.0 106 1.0 107 1.0 
105 
106 
107 108 1.0 109 1.0 110 1.0 
108 
109 
110 111 1.0 112 1.0 113 1.0 
111 
112 
113 114 1.0 115 1.0 132 1.0 
114 
115 116 2.0 129 1.0 
116 
117 119 1.0 120 1.0 121 1.0 129 1.0 
118 122 1.0 123 1.0 124 1.0 129 1.0 
119 122 1.0 125 1.0 126 1.0 
120 
121 
122 127 1.0 128 1.0 
123 
124 
125 
126 
127 
128 
129 
130 131 2.0 132 1.0 143 1.0 
131 
132 133 1.0 
133 
134 135 1.5 139 1.5 140 1.0 
135 136 1.5 145 1.0 
136 137 1.5 141 1.0 
137 138 1.5 146 1.0 
138 139 1.5 142 1.0 
139 143 1.0 
140 
141 
142 
143 144 1.0 
144 
145 148 1.0 149 1.0 150 1.0 
146 147 2.0 
147 
148 
149 
150 


