%mem=1GB
%nprocshared=12
#p geom=connect #p opt b3lyp m06-2x geom=connect scrf=(solvent=benzene) freq

00005

0 1
O   -2.888576  -0.439359  -4.249104
C   -2.374673  -1.552263  -4.975562
H   -1.291149  -1.456356  -5.048477
H   -2.746850  -1.546752  -6.001449
C   -2.739059  -2.874394  -4.285351
H   -3.798553  -2.870182  -4.027085
H   -2.607030  -3.697344  -4.988270
C   -1.872539  -3.140975  -3.046349
H   -0.868133  -3.409459  -3.377276
H   -1.737636  -2.216938  -2.485217
C   -2.428476  -4.269549  -2.143418
H   -2.475008  -5.175327  -2.748897
C   -1.497774  -4.567348  -0.937072
O   -0.581749  -3.784972  -0.668798
C   -0.919344  -6.010674   0.982558
C   -2.772073  -6.661352  -0.407833
C   -1.342013  -7.425435   1.377090
H   -1.148114  -5.302842   1.780577
H    0.151339  -5.954710   0.778538
C   -2.759461  -7.553327   0.834831
H   -2.535033  -7.242890  -1.300000
H   -3.754377  -6.208785  -0.548897
H   -0.694185  -8.152306   0.884672
H   -1.280672  -7.600397   2.451982
H   -3.039154  -8.585077   0.618094
H   -3.466992  -7.165973   1.569741
N   -1.721165  -5.668097  -0.190337
O   -3.778588  -3.970484  -1.734997
C   -3.910691  -2.955653  -0.749818
H   -3.269948  -2.137964  -1.046520
H   -3.581446  -3.327266   0.221122
C   -5.338069  -2.419538  -0.630556
H   -5.649748  -1.982638  -1.579911
H   -6.006711  -3.261711  -0.450040
C   -5.514936  -1.394483   0.514373
H   -5.205402  -1.829472   1.464049
H   -6.586115  -1.237430   0.636787
C   -4.845561  -0.014237   0.275938
H   -5.118734   0.279845  -0.735260
C   -5.300810   1.126882   1.198082
O   -4.638755   1.391300   2.204055
C   -6.748924   3.082509   1.562107
C   -7.339315   1.560898  -0.203291
C   -7.802829   3.754988   0.683317
H   -7.164209   2.824341   2.537635
H   -5.889524   3.735448   1.725953
C   -8.454020   2.598700  -0.062032
H   -7.745289   0.552596  -0.124166
H   -6.859586   1.646067  -1.174931
H   -8.518211   4.344417   1.258209
H   -7.318687   4.425305  -0.027702
H   -9.262585   2.185772   0.543220
H   -8.881004   2.898379  -1.019457
N   -6.383069   1.853807   0.864504
C   -2.515953  -0.656043   1.010494
O   -2.821112  -1.414924   1.927298
N   -3.388792  -0.026640   0.227414
H   -2.982594   0.606019  -0.448325
C    0.099609  -2.019562   1.870179
C    1.356768  -2.628915   2.056352
C    2.472371  -2.159496   1.334287
C    2.352320  -1.068814   0.445368
C    1.083650  -0.473385   0.259749
C   -0.046908  -0.953791   0.953117
H   -0.737729  -2.401813   2.430458
H    3.432866  -2.628252   1.496936
H    0.975439   0.358981  -0.423185
N   -1.275373  -0.319061   0.667303
H   -1.211373   0.456498   0.010207
C    1.531561  -3.771812   3.037550
C    3.571653  -0.547786  -0.226805
O    4.619474  -1.188945  -0.319905
F    2.044153  -4.826340   2.408339
F    2.371764  -3.389803   3.996485
F    0.380767  -4.135154   3.600511
O    3.433465   0.731454  -0.624889
C    4.566032   1.495014  -1.022423
H    4.560829   1.560200  -2.110701
H    5.508581   1.023383  -0.740366
C    4.499662   2.909608  -0.413764
H    5.218509   3.533825  -0.945031
H    3.523358   3.350303  -0.619164
C    4.821619   3.005114   1.097307
H    4.853308   4.058022   1.379099
H    5.826426   2.621916   1.279654
C    3.821146   2.260808   2.006926
H    3.924956   1.202844   1.791397
C    4.095205   2.371037   3.523879
O    4.855163   3.246960   3.943882
C    3.609394   1.551618   5.808962
C    2.564506   0.426245   3.961586
C    2.901541   0.300453   6.333578
H    3.126947   2.454960   6.185831
H    4.656752   1.577768   6.114883
C    1.884006  -0.028077   5.251496
H    1.831163   0.720060   3.211648
H    3.160530  -0.386253   3.544417
H    3.617903  -0.517747   6.423146
H    2.445273   0.451543   7.312728
H    1.598572  -1.080519   5.236373
H    0.982078   0.560220   5.420487
N    3.466090   1.511006   4.354918
O    2.482768   2.640634   1.673870
C    2.000003   3.913459   2.105099
H    2.542944   4.726199   1.621616
H    2.102823   4.045182   3.182355
C    0.508693   3.973713   1.761294
H    0.049537   4.813586   2.284157
H    0.384905   4.163299   0.694561
C   -0.184352   2.653469   2.127887
H    0.192540   2.324838   3.095940
H    0.134377   1.891218   1.421078
C   -1.716158   2.678415   2.182487
H   -2.058144   1.659050   2.113956
C   -2.298322   3.191691   3.495749
O   -2.681290   4.363776   3.554046
C   -2.743858   2.785903   5.889024
C   -2.015123   0.927353   4.551670
C   -2.238941   1.693939   6.831653
H   -3.831490   2.863269   5.928380
H   -2.326921   3.760583   6.149345
C   -2.250728   0.432137   5.980000
H   -0.978768   0.773857   4.255806
H   -2.648085   0.372061   3.859917
H   -1.215640   1.918509   7.136951
H   -2.842691   1.602134   7.735354
H   -1.508360  -0.300369   6.299721
H   -3.231208  -0.042477   6.043696
N   -2.352011   2.353811   4.551577
C   -2.377719   2.911585  -0.177285
O   -1.602709   2.067119  -0.626605
N   -2.319836   3.371092   1.062700
H   -2.943859   4.111073   1.351850
C   -5.283613   3.556237  -2.328886
C   -6.091663   3.072814  -3.376572
C   -5.689841   1.923331  -4.083597
C   -4.490144   1.250513  -3.758144
C   -3.691864   1.743206  -2.698413
C   -4.098845   2.887613  -1.965381
H   -5.605022   4.424963  -1.773842
H   -6.324531   1.557204  -4.878723
H   -2.785516   1.211874  -2.455709
N   -3.434764   3.394644  -0.822469
H   -3.913399   4.149833  -0.357183
C   -7.413638   3.738493  -3.713183
C   -4.122860   0.030460  -4.529655
O   -4.876825  -0.488147  -5.355617
F   -8.386672   2.832950  -3.647804
F   -7.365956   4.231544  -4.948081
F   -7.704535   4.725762  -2.867600

1 2 1.0 
2 3 1.0 4 1.0 5 1.0 
3 
4 
5 6 1.0 7 1.0 8 1.0 
6 
7 
8 9 1.0 10 1.0 11 1.0 
9 
10 
11 12 1.0 13 1.0 28 1.0 
12 
13 14 2.0 27 1.0 
14 
15 17 1.0 18 1.0 19 1.0 27 1.0 
16 20 1.0 21 1.0 22 1.0 27 1.0 
17 20 1.0 23 1.0 24 1.0 
18 
19 
20 25 1.0 26 1.0 
21 
22 
23 
24 
25 
26 
27 
28 29 1.0 
29 30 1.0 31 1.0 32 1.0 
30 
31 
32 33 1.0 34 1.0 35 1.0 
33 
34 
35 36 1.0 37 1.0 38 1.0 
36 
37 
38 39 1.0 40 1.0 57 1.0 
39 
40 41 2.0 54 1.0 
41 
42 44 1.0 45 1.0 46 1.0 54 1.0 
43 47 1.0 48 1.0 49 1.0 54 1.0 
44 47 1.0 50 1.0 51 1.0 
45 
46 
47 52 1.0 53 1.0 
48 
49 
50 
51 
52 
53 
54 
55 56 2.0 57 1.0 68 1.0 
56 
57 58 1.0 
58 
59 60 1.5 64 1.5 65 1.0 
60 61 1.5 70 1.0 
61 62 1.5 66 1.0 
62 63 1.5 71 1.0 
63 64 1.5 67 1.0 
64 68 1.0 
65 
66 
67 
68 69 1.0 
69 
70 73 1.0 74 1.0 75 1.0 
71 72 2.0 76 1.0 
72 
73 
74 
75 
76 77 1.0 
77 78 1.0 79 1.0 80 1.0 
78 
79 
80 81 1.0 82 1.0 83 1.0 
81 
82 
83 84 1.0 85 1.0 86 1.0 
84 
85 
86 87 1.0 88 1.0 103 1.0 
87 
88 89 2.0 102 1.0 
89 
90 92 1.0 93 1.0 94 1.0 102 1.0 
91 95 1.0 96 1.0 97 1.0 102 1.0 
92 95 1.0 98 1.0 99 1.0 
93 
94 
95 100 1.0 101 1.0 
96 
97 
98 
99 
100 
101 
102 
103 104 1.0 
104 105 1.0 106 1.0 107 1.0 
105 
106 
107 108 1.0 109 1.0 110 1.0 
108 
109 
110 111 1.0 112 1.0 113 1.0 
111 
112 
113 114 1.0 115 1.0 132 1.0 
114 
115 116 2.0 129 1.0 
116 
117 119 1.0 120 1.0 121 1.0 129 1.0 
118 122 1.0 123 1.0 124 1.0 129 1.0 
119 122 1.0 125 1.0 126 1.0 
120 
121 
122 127 1.0 128 1.0 
123 
124 
125 
126 
127 
128 
129 
130 131 2.0 132 1.0 143 1.0 
131 
132 133 1.0 
133 
134 135 1.5 139 1.5 140 1.0 
135 136 1.5 145 1.0 
136 137 1.5 141 1.0 
137 138 1.5 146 1.0 
138 139 1.5 142 1.0 
139 143 1.0 
140 
141 
142 
143 144 1.0 
144 
145 148 1.0 149 1.0 150 1.0 
146 147 2.0 
147 
148 
149 
150 


