%mem=1GB
%nprocshared=12
#p geom=connect #p opt b3lyp m06-2x geom=connect scrf=(solvent=benzene) freq

00003

0 1
O   -1.384021  -2.583598  -1.707326
C   -0.538813  -3.725269  -1.741394
H    0.483597  -3.383262  -1.594139
H   -0.545751  -4.231907  -2.707226
C   -0.898564  -4.727197  -0.633428
H   -0.093138  -5.460867  -0.595011
H   -0.881408  -4.235628   0.335427
C   -2.222229  -5.497748  -0.822632
H   -2.285902  -5.862423  -1.848657
H   -2.180914  -6.396886  -0.207147
C   -3.502803  -4.697373  -0.482601
H   -3.584412  -3.916753  -1.229345
C   -4.788598  -5.551219  -0.546499
O   -4.758939  -6.712651  -0.131190
C   -7.192329  -5.726466  -1.096623
C   -6.078434  -3.655971  -1.581467
C   -8.129633  -4.857018  -1.936146
H   -7.580250  -5.846601  -0.083796
H   -7.075569  -6.721122  -1.530797
C   -7.580356  -3.448146  -1.767617
H   -5.569638  -3.608173  -2.545255
H   -5.655258  -2.890213  -0.934426
H   -8.063145  -5.152454  -2.984443
H   -9.173581  -4.944592  -1.632472
H   -7.818541  -2.799565  -2.610967
H   -8.005272  -2.995909  -0.870751
N   -5.923618  -5.003154  -1.032939
O   -3.417857  -4.027533   0.776794
C   -3.184464  -4.800351   1.949912
H   -2.309478  -5.439765   1.839234
H   -4.033100  -5.451397   2.161774
C   -2.953110  -3.853779   3.137235
H   -3.884071  -3.354225   3.402816
H   -2.703901  -4.467838   4.003421
C   -1.810650  -2.835955   2.918171
H   -0.968539  -3.382728   2.503068
H   -1.463995  -2.482657   3.890710
C   -2.211677  -1.611623   2.049468
H   -2.605905  -1.921092   1.090278
C   -3.209799  -0.740048   2.815220
O   -2.815696  -0.163646   3.829832
C   -5.435816   0.275756   3.046021
C   -5.124539  -1.357266   1.315606
C   -6.803198  -0.082365   2.470494
H   -5.423934   0.162949   4.131840
H   -5.185961   1.311686   2.819706
C   -6.490304  -0.703878   1.119765
H   -5.251334  -2.392899   1.632250
H   -4.559226  -1.361271   0.388457
H   -7.285848  -0.823421   3.109674
H   -7.470856   0.777147   2.398234
H   -7.253491  -1.411707   0.795788
H   -6.430182   0.080985   0.367933
N   -4.479416  -0.612339   2.390918
C   -0.009203  -1.070454   1.012289
O    0.459711  -2.203590   0.981164
N   -1.100089  -0.740408   1.696685
H   -1.320380   0.243917   1.729346
C    2.192439  -1.114628  -1.126109
C    3.150862  -1.003144  -2.149662
C    3.447189   0.265269  -2.687459
C    2.779241   1.420980  -2.222719
C    1.776140   1.281328  -1.231776
C    1.485105   0.019784  -0.665307
H    2.023569  -2.102089  -0.731728
H    4.205577   0.350259  -3.453028
H    1.233476   2.153200  -0.889790
N    0.469135  -0.029085   0.326518
H   -0.084807   0.824592   0.403349
C    3.845708  -2.258803  -2.645655
C    3.183563   2.747263  -2.770435
O    3.973216   2.880460  -3.707594
F    4.545526  -2.035688  -3.757139
F    4.670413  -2.708916  -1.703337
F    2.935381  -3.197536  -2.901924
O    2.651657   3.780678  -2.100761
C    3.141810   5.092764  -2.331485
H    2.870916   5.398759  -3.342928
H    4.231570   5.101381  -2.274793
C    2.561149   6.088192  -1.312241
H    2.866344   7.088956  -1.618802
H    1.473024   6.083792  -1.378693
C    3.013387   5.881754   0.153541
H    2.713215   6.757007   0.730760
H    4.102689   5.857621   0.202007
C    2.438405   4.610747   0.819747
H    2.859008   3.755114   0.299085
C    2.825860   4.419567   2.308532
O    3.158086   5.401194   2.977759
C    2.840454   2.947588   4.298048
C    2.450601   1.937876   2.160599
C    2.666378   1.438111   4.494202
H    2.054765   3.500078   4.814968
H    3.799416   3.293491   4.687461
C    1.966855   0.961656   3.229565
H    1.717387   2.054075   1.370761
H    3.373213   1.577990   1.702845
H    3.646781   0.964969   4.567610
H    2.113222   1.190680   5.401168
H    2.192348  -0.077524   2.986431
H    0.887108   1.047810   3.348976
N    2.729351   3.188883   2.860897
O    1.014910   4.577372   0.646484
C    0.218870   5.553476   1.330430
H    0.013852   6.389721   0.661444
H    0.700336   5.975521   2.211800
C   -1.083679   4.865748   1.756470
H   -1.705245   5.550481   2.334270
H   -1.645143   4.618814   0.856489
C   -0.767553   3.602402   2.575604
H   -0.228016   3.892662   3.476762
H   -0.068716   2.996286   2.014961
C   -1.922802   2.656001   2.926514
H   -1.462388   1.689091   3.099204
C   -2.705781   3.036566   4.186015
O   -3.798877   3.596452   4.053688
C   -2.865866   3.084487   6.646111
C   -0.934141   2.040385   5.668137
C   -1.841905   2.834045   7.753603
H   -3.734735   2.435634   6.768100
H   -3.215253   4.118572   6.651693
C   -0.921463   1.770071   7.172600
H   -0.097000   2.681838   5.397196
H   -0.840032   1.103251   5.119429
H   -1.273887   3.746621   7.941033
H   -2.301931   2.529788   8.694600
H    0.082254   1.797680   7.598710
H   -1.337804   0.780637   7.368764
N   -2.192815   2.738667   5.396895
C   -2.612641   1.947954   0.654120
O   -1.471631   1.791526   0.232303
N   -2.868973   2.476312   1.837559
H   -3.824339   2.662092   2.110286
C   -5.020005   0.792500  -1.853773
C   -5.255208  -0.107559  -2.911659
C   -4.272066  -1.062967  -3.243099
C   -3.079395  -1.154302  -2.493600
C   -2.856005  -0.244323  -1.438242
C   -3.826053   0.730518  -1.110361
H   -5.789399   1.507358  -1.600198
H   -4.457386  -1.764194  -4.044548
H   -1.951456  -0.335437  -0.863315
N   -3.717903   1.565434   0.024990
H   -4.591293   1.881294   0.417322
C   -6.586607  -0.067186  -3.637986
C   -2.123400  -2.250870  -2.781929
O   -2.091153  -2.846797  -3.859235
F   -7.572523  -0.098128  -2.743731
F   -6.735065  -1.104481  -4.460354
F   -6.678821   1.057860  -4.342287

1 2 1.0 
2 3 1.0 4 1.0 5 1.0 
3 
4 
5 6 1.0 7 1.0 8 1.0 
6 
7 
8 9 1.0 10 1.0 11 1.0 
9 
10 
11 12 1.0 13 1.0 28 1.0 
12 
13 14 2.0 27 1.0 
14 
15 17 1.0 18 1.0 19 1.0 27 1.0 
16 20 1.0 21 1.0 22 1.0 27 1.0 
17 20 1.0 23 1.0 24 1.0 
18 
19 
20 25 1.0 26 1.0 
21 
22 
23 
24 
25 
26 
27 
28 29 1.0 
29 30 1.0 31 1.0 32 1.0 
30 
31 
32 33 1.0 34 1.0 35 1.0 
33 
34 
35 36 1.0 37 1.0 38 1.0 
36 
37 
38 39 1.0 40 1.0 57 1.0 
39 
40 41 2.0 54 1.0 
41 
42 44 1.0 45 1.0 46 1.0 54 1.0 
43 47 1.0 48 1.0 49 1.0 54 1.0 
44 47 1.0 50 1.0 51 1.0 
45 
46 
47 52 1.0 53 1.0 
48 
49 
50 
51 
52 
53 
54 
55 56 2.0 57 1.0 68 1.0 
56 
57 58 1.0 
58 
59 60 1.5 64 1.5 65 1.0 
60 61 1.5 70 1.0 
61 62 1.5 66 1.0 
62 63 1.5 71 1.0 
63 64 1.5 67 1.0 
64 68 1.0 
65 
66 
67 
68 69 1.0 
69 
70 73 1.0 74 1.0 75 1.0 
71 72 2.0 76 1.0 
72 
73 
74 
75 
76 77 1.0 
77 78 1.0 79 1.0 80 1.0 
78 
79 
80 81 1.0 82 1.0 83 1.0 
81 
82 
83 84 1.0 85 1.0 86 1.0 
84 
85 
86 87 1.0 88 1.0 103 1.0 
87 
88 89 2.0 102 1.0 
89 
90 92 1.0 93 1.0 94 1.0 102 1.0 
91 95 1.0 96 1.0 97 1.0 102 1.0 
92 95 1.0 98 1.0 99 1.0 
93 
94 
95 100 1.0 101 1.0 
96 
97 
98 
99 
100 
101 
102 
103 104 1.0 
104 105 1.0 106 1.0 107 1.0 
105 
106 
107 108 1.0 109 1.0 110 1.0 
108 
109 
110 111 1.0 112 1.0 113 1.0 
111 
112 
113 114 1.0 115 1.0 132 1.0 
114 
115 116 2.0 129 1.0 
116 
117 119 1.0 120 1.0 121 1.0 129 1.0 
118 122 1.0 123 1.0 124 1.0 129 1.0 
119 122 1.0 125 1.0 126 1.0 
120 
121 
122 127 1.0 128 1.0 
123 
124 
125 
126 
127 
128 
129 
130 131 2.0 132 1.0 143 1.0 
131 
132 133 1.0 
133 
134 135 1.5 139 1.5 140 1.0 
135 136 1.5 145 1.0 
136 137 1.5 141 1.0 
137 138 1.5 146 1.0 
138 139 1.5 142 1.0 
139 143 1.0 
140 
141 
142 
143 144 1.0 
144 
145 148 1.0 149 1.0 150 1.0 
146 147 2.0 
147 
148 
149 
150 


