%mem=1GB
%nprocshared=12
#p geom=connect #p opt b3lyp m06-2x geom=connect scrf=(solvent=benzene) freq

00008

0 1
O   -2.436579  -1.663996  -3.669140
C   -1.864612  -2.800756  -3.048186
H   -0.929466  -2.564568  -2.540883
H   -1.655178  -3.573892  -3.787564
C   -2.917171  -3.267080  -2.036031
H   -3.289932  -2.400245  -1.498558
H   -3.775290  -3.670484  -2.574661
C   -2.412053  -4.293717  -1.014407
H   -2.090388  -5.189070  -1.548462
H   -1.529402  -3.919266  -0.497338
C   -3.509272  -4.657877   0.007529
H   -4.403234  -4.883225  -0.574827
C   -3.195331  -5.933032   0.825834
O   -2.038805  -6.360252   0.869614
C   -4.019002  -7.744472   2.294436
C   -5.594975  -6.092124   1.535092
C   -5.426295  -8.210288   2.670720
H   -3.444073  -7.490385   3.186446
H   -3.472575  -8.518168   1.752058
C   -6.265718  -6.940725   2.616046
H   -6.060271  -6.273396   0.565014
H   -5.689041  -5.029458   1.763068
H   -5.788519  -8.920688   1.925929
H   -5.463280  -8.702072   3.643608
H   -7.318340  -7.136699   2.407877
H   -6.208415  -6.423603   3.575202
N   -4.201905  -6.538074   1.490170
O   -3.843032  -3.528759   0.833987
C   -3.055385  -3.258674   1.993719
H   -2.002110  -3.129193   1.743848
H   -3.116128  -4.091630   2.694422
C   -3.620446  -2.023607   2.715268
H   -4.708617  -2.006834   2.664050
H   -3.389344  -2.130025   3.776065
C   -3.016423  -0.687182   2.264624
H   -1.945789  -0.749642   2.449726
H   -3.377248   0.088738   2.939856
C   -3.311816  -0.269218   0.803909
H   -3.497716  -1.148759   0.199903
C   -4.512458   0.676423   0.696355
O   -4.343561   1.865453   0.968443
C   -6.922893   1.046455   0.405213
C   -6.066531  -1.154556  -0.043170
C   -8.088668   0.181953  -0.079036
H   -7.088402   1.360603   1.437286
H   -6.811831   1.948259  -0.198068
C   -7.589154  -1.251652   0.038519
H   -5.620955  -1.903299   0.604400
H   -5.715105  -1.332918  -1.060345
H   -8.998102   0.351996   0.498642
H   -8.324695   0.410762  -1.116921
H   -7.874170  -1.655264   1.011378
H   -8.009327  -1.908102  -0.724566
N   -5.727030   0.208569   0.352866
C   -1.028887  -0.257879  -0.112625
O   -0.913515  -1.477153  -0.018515
N   -2.143573   0.380744   0.230877
H   -2.205688   1.380617   0.112499
C    1.552407  -1.028187  -1.552372
C    2.806474  -1.268510  -2.141321
C    3.748616  -0.223287  -2.214420
C    3.440528   1.064326  -1.719376
C    2.152046   1.302385  -1.178942
C    1.206742   0.256824  -1.075298
H    0.866337  -1.857031  -1.510758
H    4.723354  -0.422159  -2.637301
H    1.894080   2.288244  -0.813160
N   -0.062416   0.567326  -0.518481
H   -0.271616   1.567632  -0.468157
C    3.126014  -2.657707  -2.664887
C    4.503808   2.108907  -1.745078
O    5.567474   1.976668  -2.353829
F    4.149876  -2.637919  -3.517203
F    3.436597  -3.447892  -1.640395
F    2.066816  -3.168505  -3.292358
O    4.218693   3.173380  -0.978129
C    5.242077   4.107975  -0.665810
H    5.454192   4.705433  -1.553361
H    6.164298   3.587024  -0.402751
C    4.821893   5.025574   0.497033
H    5.579083   5.804034   0.593395
H    3.901752   5.547261   0.232959
C    4.672934   4.334748   1.875239
H    4.558706   5.106615   2.637156
H    5.595286   3.808841   2.124540
C    3.481560   3.354664   1.960183
H    3.694784   2.533622   1.281590
C    3.259181   2.694799   3.343886
O    3.713320   3.236206   4.354972
C    1.990202   1.036742   4.674922
C    2.024170   0.779428   2.290676
C    1.183687  -0.212838   4.307865
H    1.352234   1.782625   5.150925
H    2.800621   0.802062   5.367033
C    0.862629  -0.045175   2.829642
H    1.708563   1.386867   1.449462
H    2.831583   0.130427   1.948493
H    1.802712  -1.100405   4.447162
H    0.290263  -0.334507   4.921731
H    0.738916  -0.996162   2.309681
H   -0.055946   0.524682   2.708633
N    2.500621   1.578079   3.417028
O    2.288426   4.006259   1.506196
C    1.733115   5.056339   2.305824
H    2.142022   6.016554   1.990051
H    1.948195   4.961765   3.369479
C    0.214548   5.016337   2.107689
H   -0.270294   5.748186   2.754487
H   -0.004398   5.312382   1.082284
C   -0.322913   3.603081   2.393173
H   -0.058409   3.330712   3.412643
H    0.209970   2.892425   1.771548
C   -1.814763   3.350465   2.131318
H   -1.942627   2.275675   2.030597
C   -2.776863   3.769039   3.248825
O   -3.521104   4.736508   3.057402
C   -3.802550   3.318546   5.444456
C   -1.969532   1.927598   4.771316
C   -3.474752   2.352946   6.586045
H   -4.801691   3.122490   5.051357
H   -3.771829   4.357666   5.776823
C   -2.702638   1.227509   5.911864
H   -1.018174   2.311833   5.138436
H   -1.761081   1.237166   3.960353
H   -2.833888   2.851128   7.315227
H   -4.363777   2.001525   7.111255
H   -2.027674   0.707048   6.592559
H   -3.399912   0.492339   5.506882
N   -2.819835   3.056725   4.394059
C   -1.874657   3.590994  -0.332022
O   -0.764138   3.120580  -0.554745
N   -2.278868   3.934460   0.880068
H   -3.178397   4.384348   0.986721
C   -4.579430   2.556840  -2.435507
C   -5.047615   1.450358  -3.174395
C   -4.133055   0.477725  -3.619527
C   -2.751006   0.618809  -3.364820
C   -2.286283   1.771069  -2.700338
C   -3.205391   2.698473  -2.156486
H   -5.290400   3.264374  -2.034954
H   -4.515684  -0.396751  -4.126783
H   -1.225085   1.867384  -2.527045
N   -2.832419   3.715739  -1.246959
H   -3.596726   4.309754  -0.965507
C   -6.527378   1.240813  -3.426741
C   -1.803076  -0.488787  -3.629623
O   -0.580727  -0.359097  -3.672108
F   -7.276451   2.099201  -2.738909
F   -6.857388   0.003815  -3.065210
F   -6.783881   1.391299  -4.723227

1 2 1.0 
2 3 1.0 4 1.0 5 1.0 
3 
4 
5 6 1.0 7 1.0 8 1.0 
6 
7 
8 9 1.0 10 1.0 11 1.0 
9 
10 
11 12 1.0 13 1.0 28 1.0 
12 
13 14 2.0 27 1.0 
14 
15 17 1.0 18 1.0 19 1.0 27 1.0 
16 20 1.0 21 1.0 22 1.0 27 1.0 
17 20 1.0 23 1.0 24 1.0 
18 
19 
20 25 1.0 26 1.0 
21 
22 
23 
24 
25 
26 
27 
28 29 1.0 
29 30 1.0 31 1.0 32 1.0 
30 
31 
32 33 1.0 34 1.0 35 1.0 
33 
34 
35 36 1.0 37 1.0 38 1.0 
36 
37 
38 39 1.0 40 1.0 57 1.0 
39 
40 41 2.0 54 1.0 
41 
42 44 1.0 45 1.0 46 1.0 54 1.0 
43 47 1.0 48 1.0 49 1.0 54 1.0 
44 47 1.0 50 1.0 51 1.0 
45 
46 
47 52 1.0 53 1.0 
48 
49 
50 
51 
52 
53 
54 
55 56 2.0 57 1.0 68 1.0 
56 
57 58 1.0 
58 
59 60 1.5 64 1.5 65 1.0 
60 61 1.5 70 1.0 
61 62 1.5 66 1.0 
62 63 1.5 71 1.0 
63 64 1.5 67 1.0 
64 68 1.0 
65 
66 
67 
68 69 1.0 
69 
70 73 1.0 74 1.0 75 1.0 
71 72 2.0 76 1.0 
72 
73 
74 
75 
76 77 1.0 
77 78 1.0 79 1.0 80 1.0 
78 
79 
80 81 1.0 82 1.0 83 1.0 
81 
82 
83 84 1.0 85 1.0 86 1.0 
84 
85 
86 87 1.0 88 1.0 103 1.0 
87 
88 89 2.0 102 1.0 
89 
90 92 1.0 93 1.0 94 1.0 102 1.0 
91 95 1.0 96 1.0 97 1.0 102 1.0 
92 95 1.0 98 1.0 99 1.0 
93 
94 
95 100 1.0 101 1.0 
96 
97 
98 
99 
100 
101 
102 
103 104 1.0 
104 105 1.0 106 1.0 107 1.0 
105 
106 
107 108 1.0 109 1.0 110 1.0 
108 
109 
110 111 1.0 112 1.0 113 1.0 
111 
112 
113 114 1.0 115 1.0 132 1.0 
114 
115 116 2.0 129 1.0 
116 
117 119 1.0 120 1.0 121 1.0 129 1.0 
118 122 1.0 123 1.0 124 1.0 129 1.0 
119 122 1.0 125 1.0 126 1.0 
120 
121 
122 127 1.0 128 1.0 
123 
124 
125 
126 
127 
128 
129 
130 131 2.0 132 1.0 143 1.0 
131 
132 133 1.0 
133 
134 135 1.5 139 1.5 140 1.0 
135 136 1.5 145 1.0 
136 137 1.5 141 1.0 
137 138 1.5 146 1.0 
138 139 1.5 142 1.0 
139 143 1.0 
140 
141 
142 
143 144 1.0 
144 
145 148 1.0 149 1.0 150 1.0 
146 147 2.0 
147 
148 
149 
150 


