%mem=1GB
%nprocshared=12
#p geom=connect #p opt b3lyp m06-2x geom=connect scrf=(solvent=benzene) freq

00018

0 1
O   -4.369940  -1.516448  -4.344759
C   -5.478606  -2.371614  -4.595215
H   -5.225670  -3.018668  -5.435270
H   -6.354585  -1.798020  -4.902425
C   -5.799456  -3.231786  -3.360259
H   -6.103188  -2.582202  -2.539075
H   -6.661957  -3.861859  -3.578740
C   -4.615811  -4.118516  -2.926714
H   -4.344760  -4.778484  -3.751779
H   -3.736096  -3.494604  -2.763378
C   -4.903058  -4.983009  -1.671927
H   -5.667145  -5.706206  -1.958093
C   -3.662898  -5.779971  -1.193442
O   -2.537567  -5.447240  -1.575931
C   -2.741246  -7.644647   0.146348
C   -5.120935  -7.291873   0.178324
C   -3.396417  -8.838664   0.842234
H   -2.157468  -7.055520   0.855521
H   -2.071810  -7.965745  -0.653758
C   -4.769383  -8.322884   1.252502
H   -5.695131  -7.758056  -0.623772
H   -5.718807  -6.481068   0.597239
H   -3.511020  -9.659022   0.131989
H   -2.812681  -9.209352   1.685779
H   -5.512875  -9.116481   1.337150
H   -4.698896  -7.830001   2.223462
N   -3.841909  -6.823772  -0.356293
O   -5.462091  -4.209368  -0.598099
C   -4.640689  -3.190877  -0.036651
H   -4.274438  -2.576721  -0.848200
H   -3.781320  -3.598326   0.497380
C   -5.505179  -2.335732   0.894406
H   -6.426291  -2.098108   0.371104
H   -5.808710  -2.946381   1.745301
C   -4.829026  -1.049358   1.418070
H   -3.996658  -1.344964   2.055937
H   -5.523395  -0.547125   2.093607
C   -4.354102  -0.048266   0.330318
H   -4.518377  -0.466223  -0.661088
C   -5.068051   1.314930   0.287026
O   -4.461020   2.325701   0.650995
C   -6.925918   2.696563  -0.547857
C   -7.196468   0.316168  -0.601402
C   -8.003729   2.375844  -1.580719
H   -7.365504   3.114080   0.359214
H   -6.211567   3.422544  -0.940868
C   -8.431774   0.955822  -1.239924
H   -7.497273  -0.238811   0.286156
H   -6.712332  -0.367962  -1.297065
H   -8.831603   3.085748  -1.565484
H   -7.567338   2.393860  -2.580964
H   -9.247587   0.982951  -0.515887
H   -8.783894   0.405239  -2.113326
N   -6.308275   1.412957  -0.226150
C   -1.947871  -0.523088  -0.097088
O   -2.139176  -1.490447  -0.827796
N   -2.923028   0.182123   0.460572
H   -2.701900   0.985240   1.029876
C    0.793379  -1.823845  -0.579266
C    2.104589  -2.208248  -0.936275
C    3.154283  -1.266124  -0.864806
C    2.898797   0.062163  -0.462501
C    1.576177   0.434042  -0.139129
C    0.521916  -0.491735  -0.193578
H    0.009774  -2.564357  -0.627435
H    4.158373  -1.569060  -1.126456
H    1.371222   1.444447   0.174432
N   -0.752293  -0.011099   0.185018
H   -0.743397   0.853875   0.699191
C    2.386306  -3.616080  -1.429607
C    4.003754   1.045139  -0.322922
O    5.182921   0.734342  -0.152477
F    3.533368  -4.063838  -0.921525
F    1.417214  -4.463859  -1.087623
F    2.485847  -3.593542  -2.756312
O    3.552417   2.311055  -0.341149
C    4.102468   3.285219   0.529105
H    4.101000   4.256138   0.033544
H    5.131110   3.057528   0.813195
C    3.168029   3.296965   1.747419
H    2.152207   3.495998   1.402954
H    3.150886   2.296780   2.181676
C    3.521471   4.300663   2.852001
H    3.442753   5.320310   2.474368
H    4.560157   4.161870   3.155340
C    2.596339   4.088327   4.068163
H    2.715421   3.046960   4.368487
C    2.946831   4.939273   5.309319
O    3.725625   5.889237   5.198540
C    2.618119   5.352000   7.726249
C    1.417397   3.529428   6.711142
C    1.969009   4.522853   8.835567
H    2.151778   6.335971   7.655068
H    3.684519   5.498250   7.907282
C    0.872866   3.740809   8.124002
H    0.604632   3.519790   5.984049
H    1.943039   2.575657   6.643929
H    2.701867   3.829544   9.251297
H    1.589997   5.135159   9.654816
H    0.624841   2.804931   8.626378
H   -0.035576   4.343682   8.079542
N    2.368686   4.620022   6.486428
O    1.232085   4.244340   3.661288
C    0.682273   5.558226   3.587618
H    1.372504   6.253933   3.108733
H    0.485962   5.932683   4.593335
C   -0.635006   5.516196   2.799617
H   -1.169918   6.449741   2.977170
H   -0.424573   5.497703   1.729619
C   -1.534359   4.326724   3.184378
H   -2.584152   4.598751   3.062424
H   -1.411026   4.113958   4.248048
C   -1.217589   3.077506   2.339925
H   -0.147107   3.011626   2.183960
C   -1.763543   1.800638   2.977184
O   -2.983015   1.690198   3.114686
C   -1.408642  -0.516079   3.714551
C    0.531675   0.822671   3.268294
C   -0.176566  -1.279666   4.190146
H   -1.860459  -1.028398   2.866289
H   -2.160982  -0.442284   4.501990
C    0.978366  -0.624523   3.451179
H    0.876102   1.438116   4.100369
H    0.955070   1.229409   2.355701
H   -0.050338  -1.137925   5.264639
H   -0.245413  -2.352049   4.002909
H    1.925123  -0.708462   3.986125
H    1.107062  -1.102985   2.480221
N   -0.928181   0.793548   3.285328
C   -1.305194   3.192099  -0.126465
O   -0.092392   3.300433  -0.283907
N   -1.889641   3.190806   1.061694
H   -2.899528   3.062981   1.096408
C   -0.837766   1.562930  -2.620941
C   -0.806553   0.435520  -3.466501
C   -2.014139  -0.153495  -3.889016
C   -3.258402   0.374880  -3.475285
C   -3.273935   1.513412  -2.642816
C   -2.073936   2.063849  -2.154347
H    0.099038   1.969887  -2.274273
H   -1.963678  -1.041043  -4.503320
H   -4.222491   1.903711  -2.302624
N   -2.192920   2.993808  -1.098580
H   -3.147978   3.160956  -0.811421
C    0.508783  -0.216997  -3.845059
C   -4.543869  -0.294534  -3.807627
O   -5.646436   0.199781  -3.568456
F    0.688122  -0.142568  -5.160873
F    0.471984  -1.496645  -3.487708
F    1.546602   0.351193  -3.236964

1 2 1.0 
2 3 1.0 4 1.0 5 1.0 
3 
4 
5 6 1.0 7 1.0 8 1.0 
6 
7 
8 9 1.0 10 1.0 11 1.0 
9 
10 
11 12 1.0 13 1.0 28 1.0 
12 
13 14 2.0 27 1.0 
14 
15 17 1.0 18 1.0 19 1.0 27 1.0 
16 20 1.0 21 1.0 22 1.0 27 1.0 
17 20 1.0 23 1.0 24 1.0 
18 
19 
20 25 1.0 26 1.0 
21 
22 
23 
24 
25 
26 
27 
28 29 1.0 
29 30 1.0 31 1.0 32 1.0 
30 
31 
32 33 1.0 34 1.0 35 1.0 
33 
34 
35 36 1.0 37 1.0 38 1.0 
36 
37 
38 39 1.0 40 1.0 57 1.0 
39 
40 41 2.0 54 1.0 
41 
42 44 1.0 45 1.0 46 1.0 54 1.0 
43 47 1.0 48 1.0 49 1.0 54 1.0 
44 47 1.0 50 1.0 51 1.0 
45 
46 
47 52 1.0 53 1.0 
48 
49 
50 
51 
52 
53 
54 
55 56 2.0 57 1.0 68 1.0 
56 
57 58 1.0 
58 
59 60 1.5 64 1.5 65 1.0 
60 61 1.5 70 1.0 
61 62 1.5 66 1.0 
62 63 1.5 71 1.0 
63 64 1.5 67 1.0 
64 68 1.0 
65 
66 
67 
68 69 1.0 
69 
70 73 1.0 74 1.0 75 1.0 
71 72 2.0 76 1.0 
72 
73 
74 
75 
76 77 1.0 
77 78 1.0 79 1.0 80 1.0 
78 
79 
80 81 1.0 82 1.0 83 1.0 
81 
82 
83 84 1.0 85 1.0 86 1.0 
84 
85 
86 87 1.0 88 1.0 103 1.0 
87 
88 89 2.0 102 1.0 
89 
90 92 1.0 93 1.0 94 1.0 102 1.0 
91 95 1.0 96 1.0 97 1.0 102 1.0 
92 95 1.0 98 1.0 99 1.0 
93 
94 
95 100 1.0 101 1.0 
96 
97 
98 
99 
100 
101 
102 
103 104 1.0 
104 105 1.0 106 1.0 107 1.0 
105 
106 
107 108 1.0 109 1.0 110 1.0 
108 
109 
110 111 1.0 112 1.0 113 1.0 
111 
112 
113 114 1.0 115 1.0 132 1.0 
114 
115 116 2.0 129 1.0 
116 
117 119 1.0 120 1.0 121 1.0 129 1.0 
118 122 1.0 123 1.0 124 1.0 129 1.0 
119 122 1.0 125 1.0 126 1.0 
120 
121 
122 127 1.0 128 1.0 
123 
124 
125 
126 
127 
128 
129 
130 131 2.0 132 1.0 143 1.0 
131 
132 133 1.0 
133 
134 135 1.5 139 1.5 140 1.0 
135 136 1.5 145 1.0 
136 137 1.5 141 1.0 
137 138 1.5 146 1.0 
138 139 1.5 142 1.0 
139 143 1.0 
140 
141 
142 
143 144 1.0 
144 
145 148 1.0 149 1.0 150 1.0 
146 147 2.0 
147 
148 
149 
150 


