%mem=1GB
%nprocshared=12
#p geom=connect #p opt b3lyp m06-2x geom=connect scrf=(solvent=benzene) freq

00029

0 1
O   -3.379974  -1.486848  -4.942721
C   -4.248312  -2.404311  -5.597904
H   -3.627437  -3.046412  -6.222840
H   -4.915747  -1.869691  -6.275432
C   -5.060835  -3.282574  -4.626306
H   -5.864656  -2.688050  -4.194619
H   -5.556923  -4.066146  -5.199571
C   -4.212601  -3.921757  -3.509074
H   -3.378855  -4.458126  -3.964532
H   -3.755777  -3.143413  -2.899553
C   -5.003263  -4.896951  -2.603242
H   -5.356353  -5.705574  -3.244035
C   -4.129888  -5.588953  -1.529037
O   -2.931797  -5.305925  -1.445858
C   -3.919455  -7.226645   0.308997
C   -6.058979  -7.014861  -0.766110
C   -4.780459  -8.421280   0.718664
H   -3.758908  -6.555683   1.154350
H   -2.941342  -7.549881  -0.052269
C   -6.203122  -7.972228   0.418388
H   -6.216012  -7.542133  -1.708245
H   -6.800601  -6.219756  -0.694552
H   -4.530126  -9.283293   0.098314
H   -4.636764  -8.709204   1.760851
H   -6.875360  -8.805394   0.209458
H   -6.603327  -7.432068   1.277897
N   -4.683436  -6.515311  -0.715539
O   -6.187622  -4.315228  -2.039520
C   -6.154940  -3.046400  -1.388369
H   -7.201195  -2.740121  -1.390572
H   -5.657505  -2.288183  -1.985345
C   -5.705117  -3.042055   0.087181
H   -6.371235  -2.388396   0.651010
H   -5.859738  -4.032414   0.516130
C   -4.259510  -2.576727   0.347225
H   -3.577888  -3.278204  -0.122120
H   -4.058355  -2.661709   1.416316
C   -3.911500  -1.141356  -0.115424
H   -4.145389  -1.007369  -1.167971
C   -4.522901  -0.011367   0.722587
O   -3.996841   0.258225   1.807020
C   -5.944969   1.990671   0.823186
C   -6.409396   0.389363  -0.895527
C   -6.757197   2.694524  -0.258421
H   -5.087778   2.596507   1.104906
H   -6.544080   1.812147   1.717524
C   -7.389091   1.554965  -1.042562
H   -6.963845  -0.526788  -0.705627
H   -5.845880   0.251430  -1.812977
H   -7.492449   3.389291   0.149596
H   -6.089982   3.261171  -0.909758
H   -8.346466   1.288382  -0.591962
H   -7.577525   1.816367  -2.084808
N   -5.551260   0.712599   0.243081
C   -1.514349  -1.402203  -0.754891
O   -1.687225  -2.187207  -1.684528
N   -2.486763  -0.919763   0.003768
H   -2.237685  -0.277009   0.745124
C    1.322697  -2.378958  -1.467805
C    2.664527  -2.590604  -1.850214
C    3.648533  -1.630915  -1.516768
C    3.294254  -0.451681  -0.823884
C    1.947049  -0.256753  -0.449347
C    0.960364  -1.197649  -0.784117
H    0.588650  -3.125007  -1.733876
H    4.676412  -1.790901  -1.809881
H    1.653755   0.637940   0.083976
N   -0.353344  -0.858996  -0.405575
H   -0.426275  -0.052852   0.214102
C    3.018587  -3.839962  -2.636034
C    4.315709   0.574967  -0.493532
O    5.524966   0.349591  -0.431386
F    2.151705  -4.001081  -3.634214
F    2.952099  -4.900464  -1.834915
F    4.244622  -3.769604  -3.152644
O    3.752939   1.774562  -0.265663
C    4.452271   2.820409   0.385372
H    4.090096   3.762835  -0.025797
H    5.528747   2.784993   0.211166
C    4.111891   2.731793   1.879974
H    3.085546   2.374823   1.976532
H    4.738153   1.976610   2.356140
C    4.218915   4.070125   2.626923
H    3.587811   4.808811   2.131857
H    5.239057   4.449996   2.556882
C    3.821125   3.932880   4.114855
H    4.549991   3.262917   4.571981
C    3.861457   5.269321   4.897489
O    3.878822   6.336402   4.278214
C    3.906012   6.434338   7.079807
C    3.815350   4.029905   7.076427
C    4.130919   5.940699   8.509837
H    2.950624   6.954876   6.995932
H    4.692224   7.123258   6.765767
C    3.577754   4.521685   8.505072
H    4.770755   3.507596   7.006928
H    3.028398   3.341159   6.765394
H    5.200352   5.915698   8.724962
H    3.657138   6.578486   9.257162
H    4.043620   3.882184   9.255919
H    2.506291   4.546822   8.710033
N    3.865217   5.233820   6.246646
O    2.545434   3.282209   4.219171
C    1.370781   4.044843   3.955193
H    1.530024   4.791765   3.176476
H    1.070830   4.571481   4.862455
C    0.280407   3.067781   3.504777
H    0.543225   2.692907   2.516938
H    0.274974   2.202646   4.169003
C   -1.123138   3.692972   3.494804
H   -1.116241   4.631251   2.938012
H   -1.369044   3.967428   4.522413
C   -2.209907   2.748527   2.936033
H   -1.878808   1.718967   3.063682
C   -3.572001   2.906748   3.621469
O   -4.318057   3.809385   3.229231
C   -5.186883   2.196313   5.344008
C   -3.118695   0.982218   5.172847
C   -5.033185   1.338016   6.599282
H   -5.985929   1.813464   4.707015
H   -5.425120   3.231222   5.596543
C   -4.006928   0.284966   6.205383
H   -2.221797   1.388506   5.643291
H   -2.812752   0.270942   4.404270
H   -4.637967   1.947427   7.413514
H   -5.976953   0.906617   6.935262
H   -3.444269  -0.098083   7.057669
H   -4.514514  -0.560224   5.737596
N   -3.919757   2.078918   4.627054
C   -1.806677   2.318717   0.540825
O   -0.850381   1.566643   0.731880
N   -2.414958   2.973303   1.515103
H   -3.205050   3.566486   1.305933
C   -0.711189   1.727883  -2.257763
C   -0.388908   0.930572  -3.375464
C   -1.415102   0.253861  -4.064792
C   -2.766745   0.395396  -3.672704
C   -3.078132   1.243529  -2.589017
C   -2.052884   1.842454  -1.836596
H    0.079643   2.202086  -1.695145
H   -1.143648  -0.390649  -4.888694
H   -4.102726   1.363551  -2.277149
N   -2.408753   2.489181  -0.637415
H   -3.266111   3.019812  -0.649873
C    1.052323   0.732105  -3.804088
C   -3.848975  -0.386456  -4.324846
O   -5.042385  -0.089300  -4.255036
F    1.224582   1.223269  -5.028265
F    1.333524  -0.567042  -3.822753
F    1.906337   1.334351  -2.980778

1 2 1.0 
2 3 1.0 4 1.0 5 1.0 
3 
4 
5 6 1.0 7 1.0 8 1.0 
6 
7 
8 9 1.0 10 1.0 11 1.0 
9 
10 
11 12 1.0 13 1.0 28 1.0 
12 
13 14 2.0 27 1.0 
14 
15 17 1.0 18 1.0 19 1.0 27 1.0 
16 20 1.0 21 1.0 22 1.0 27 1.0 
17 20 1.0 23 1.0 24 1.0 
18 
19 
20 25 1.0 26 1.0 
21 
22 
23 
24 
25 
26 
27 
28 29 1.0 
29 30 1.0 31 1.0 32 1.0 
30 
31 
32 33 1.0 34 1.0 35 1.0 
33 
34 
35 36 1.0 37 1.0 38 1.0 
36 
37 
38 39 1.0 40 1.0 57 1.0 
39 
40 41 2.0 54 1.0 
41 
42 44 1.0 45 1.0 46 1.0 54 1.0 
43 47 1.0 48 1.0 49 1.0 54 1.0 
44 47 1.0 50 1.0 51 1.0 
45 
46 
47 52 1.0 53 1.0 
48 
49 
50 
51 
52 
53 
54 
55 56 2.0 57 1.0 68 1.0 
56 
57 58 1.0 
58 
59 60 1.5 64 1.5 65 1.0 
60 61 1.5 70 1.0 
61 62 1.5 66 1.0 
62 63 1.5 71 1.0 
63 64 1.5 67 1.0 
64 68 1.0 
65 
66 
67 
68 69 1.0 
69 
70 73 1.0 74 1.0 75 1.0 
71 72 2.0 76 1.0 
72 
73 
74 
75 
76 77 1.0 
77 78 1.0 79 1.0 80 1.0 
78 
79 
80 81 1.0 82 1.0 83 1.0 
81 
82 
83 84 1.0 85 1.0 86 1.0 
84 
85 
86 87 1.0 88 1.0 103 1.0 
87 
88 89 2.0 102 1.0 
89 
90 92 1.0 93 1.0 94 1.0 102 1.0 
91 95 1.0 96 1.0 97 1.0 102 1.0 
92 95 1.0 98 1.0 99 1.0 
93 
94 
95 100 1.0 101 1.0 
96 
97 
98 
99 
100 
101 
102 
103 104 1.0 
104 105 1.0 106 1.0 107 1.0 
105 
106 
107 108 1.0 109 1.0 110 1.0 
108 
109 
110 111 1.0 112 1.0 113 1.0 
111 
112 
113 114 1.0 115 1.0 132 1.0 
114 
115 116 2.0 129 1.0 
116 
117 119 1.0 120 1.0 121 1.0 129 1.0 
118 122 1.0 123 1.0 124 1.0 129 1.0 
119 122 1.0 125 1.0 126 1.0 
120 
121 
122 127 1.0 128 1.0 
123 
124 
125 
126 
127 
128 
129 
130 131 2.0 132 1.0 143 1.0 
131 
132 133 1.0 
133 
134 135 1.5 139 1.5 140 1.0 
135 136 1.5 145 1.0 
136 137 1.5 141 1.0 
137 138 1.5 146 1.0 
138 139 1.5 142 1.0 
139 143 1.0 
140 
141 
142 
143 144 1.0 
144 
145 148 1.0 149 1.0 150 1.0 
146 147 2.0 
147 
148 
149 
150 


