%mem=1GB
%nprocshared=12
#p geom=connect #p opt b3lyp m06-2x geom=connect scrf=(solvent=benzene) freq

00015

0 1
O   -4.324432  -1.599274  -4.443523
C   -5.023770  -2.739944  -4.916180
H   -4.615228  -3.006232  -5.891101
H   -6.079625  -2.510297  -5.067332
C   -4.851414  -3.917984  -3.943136
H   -5.447919  -3.715543  -3.053374
H   -5.280143  -4.818598  -4.383276
C   -3.383184  -4.178481  -3.541583
H   -2.825221  -4.526133  -4.411883
H   -2.898669  -3.251253  -3.238792
C   -3.263584  -5.211341  -2.404407
H   -3.662699  -6.148218  -2.793475
C   -1.805844  -5.458941  -1.943806
O   -0.946298  -4.599493  -2.158339
C   -0.195183  -6.933219  -0.778615
C   -2.479411  -7.657584  -0.947552
C   -0.270441  -8.393579  -0.333779
H    0.016979  -6.287134   0.074042
H    0.583312  -6.778897  -1.527702
C   -1.740457  -8.598690   0.005359
H   -2.765853  -8.187126  -1.857489
H   -3.384962  -7.262711  -0.483693
H    0.009548  -9.044944  -1.163146
H    0.393781  -8.615621   0.502426
H   -2.058043  -9.637424  -0.094061
H   -1.923384  -8.293153   1.036819
N   -1.523599  -6.602767  -1.286171
O   -4.105586  -4.822067  -1.310411
C   -3.659853  -3.757677  -0.475611
H   -3.260029  -2.929096  -1.058556
H   -2.875720  -4.124804   0.186648
C   -4.859340  -3.286568   0.344994
H   -5.582926  -2.791108  -0.303609
H   -5.365482  -4.171991   0.731638
C   -4.507109  -2.395877   1.546873
H   -3.749789  -2.866588   2.173128
H   -5.396440  -2.375994   2.179259
C   -4.153557  -0.929549   1.213429
H   -4.871188  -0.626277   0.456979
C   -4.276638   0.005410   2.424503
O   -3.425159  -0.061806   3.312716
C   -5.562313   1.718597   3.656686
C   -6.320331   1.118177   1.469855
C   -6.478979   2.830385   3.154450
H   -6.072989   1.120353   4.412766
H   -4.658675   2.105022   4.118547
C   -7.277464   2.158775   2.049865
H   -6.857731   0.208603   1.196043
H   -5.845879   1.516746   0.576443
H   -7.107965   3.248082   3.941592
H   -5.892361   3.645028   2.731884
H   -8.146135   1.657971   2.480382
H   -7.640747   2.864379   1.301527
N   -5.310874   0.868195   2.498546
C   -1.692294  -1.280789   0.722251
O   -1.489256  -2.308441   1.365317
N   -2.877124  -0.702828   0.551662
H   -2.857027   0.143171   0.003211
C    0.908847  -2.333207  -0.464267
C    2.198925  -2.671288  -0.919938
C    3.135574  -1.648081  -1.176571
C    2.801341  -0.290580  -0.972745
C    1.507194   0.029152  -0.499907
C    0.558660  -0.981983  -0.251670
H    0.196521  -3.129246  -0.305794
H    4.118725  -1.911809  -1.540081
H    1.221704   1.061810  -0.354718
N   -0.742052  -0.573135   0.117107
H   -0.966096   0.403679  -0.029979
C    2.556552  -4.129057  -1.151415
C    3.816931   0.759049  -1.265613
O    4.951382   0.507920  -1.676541
F    2.030341  -4.539552  -2.301629
F    3.875940  -4.307514  -1.201520
F    2.075553  -4.879140  -0.163488
O    3.377394   2.002049  -1.014005
C    4.269321   3.101436  -1.099538
H    4.416815   3.352915  -2.150475
H    5.246971   2.837268  -0.692633
C    3.709622   4.315622  -0.338090
H    4.367218   5.160652  -0.543541
H    2.736171   4.595825  -0.742169
C    3.627675   4.137092   1.195114
H    3.588232   5.121933   1.661064
H    4.550129   3.681929   1.558318
C    2.411781   3.304529   1.664213
H    2.471047   2.343143   1.168121
C    2.398337   2.983269   3.180049
O    2.974782   3.742371   3.963475
C    1.421470   1.662930   5.031316
C    1.035891   0.906151   2.789110
C    0.588215   0.378968   5.082708
H    0.851513   2.504024   5.430092
H    2.338645   1.572470   5.615551
C   -0.012061   0.259125   3.688826
H    0.578849   1.330284   1.900248
H    1.771494   0.167878   2.467120
H    1.240803  -0.474381   5.273194
H   -0.169873   0.397945   5.866707
H   -0.238098  -0.770242   3.408224
H   -0.940529   0.828129   3.636263
N    1.705155   1.907677   3.618128
O    1.181868   3.921326   1.251614
C    0.834592   5.190501   1.817518
H    1.100461   5.975090   1.108410
H    1.363259   5.419070   2.742601
C   -0.677342   5.192820   2.081917
H   -0.997569   6.172506   2.437960
H   -1.182886   5.035822   1.130344
C   -1.055630   4.109947   3.113611
H   -0.706142   4.423578   4.097583
H   -0.487420   3.211712   2.905533
C   -2.535504   3.676431   3.184902
H   -2.575246   2.723024   3.708101
C   -3.407841   4.703911   3.911236
O   -4.023496   5.538118   3.240403
C   -4.295420   5.607658   6.026205
C   -2.822442   3.709290   6.143698
C   -3.893844   5.400525   7.486655
H   -5.351248   5.375143   5.877810
H   -4.131226   6.639446   5.710001
C   -3.404161   3.959969   7.535495
H   -1.748934   3.901839   6.141202
H   -2.982538   2.670532   5.852974
H   -3.074086   6.074441   7.740494
H   -4.711163   5.595173   8.182226
H   -2.681731   3.784644   8.333716
H   -4.251109   3.292751   7.703583
N   -3.491976   4.662249   5.255659
C   -2.659597   2.600514   0.959322
O   -1.645893   1.925641   1.105476
N   -3.115997   3.444197   1.869722
H   -3.930933   4.008904   1.674350
C   -1.795895   1.790863  -1.812607
C   -1.451434   0.925418  -2.868490
C   -2.428608   0.061489  -3.395388
C   -3.752561   0.068033  -2.893857
C   -4.088555   0.953562  -1.849503
C   -3.103185   1.776700  -1.275546
H   -1.037348   2.433641  -1.388550
H   -2.131189  -0.614743  -4.184222
H   -5.093193   0.944583  -1.451574
N   -3.432290   2.515841  -0.120723
H   -4.324659   2.986709  -0.110876
C   -0.035755   0.871518  -3.412072
C   -4.774526  -0.883089  -3.398408
O   -5.885091  -1.027248  -2.884400
F    0.447856  -0.356606  -3.246391
F    0.769826   1.735464  -2.797419
F   -0.045420   1.153694  -4.712035

1 2 1.0 
2 3 1.0 4 1.0 5 1.0 
3 
4 
5 6 1.0 7 1.0 8 1.0 
6 
7 
8 9 1.0 10 1.0 11 1.0 
9 
10 
11 12 1.0 13 1.0 28 1.0 
12 
13 14 2.0 27 1.0 
14 
15 17 1.0 18 1.0 19 1.0 27 1.0 
16 20 1.0 21 1.0 22 1.0 27 1.0 
17 20 1.0 23 1.0 24 1.0 
18 
19 
20 25 1.0 26 1.0 
21 
22 
23 
24 
25 
26 
27 
28 29 1.0 
29 30 1.0 31 1.0 32 1.0 
30 
31 
32 33 1.0 34 1.0 35 1.0 
33 
34 
35 36 1.0 37 1.0 38 1.0 
36 
37 
38 39 1.0 40 1.0 57 1.0 
39 
40 41 2.0 54 1.0 
41 
42 44 1.0 45 1.0 46 1.0 54 1.0 
43 47 1.0 48 1.0 49 1.0 54 1.0 
44 47 1.0 50 1.0 51 1.0 
45 
46 
47 52 1.0 53 1.0 
48 
49 
50 
51 
52 
53 
54 
55 56 2.0 57 1.0 68 1.0 
56 
57 58 1.0 
58 
59 60 1.5 64 1.5 65 1.0 
60 61 1.5 70 1.0 
61 62 1.5 66 1.0 
62 63 1.5 71 1.0 
63 64 1.5 67 1.0 
64 68 1.0 
65 
66 
67 
68 69 1.0 
69 
70 73 1.0 74 1.0 75 1.0 
71 72 2.0 76 1.0 
72 
73 
74 
75 
76 77 1.0 
77 78 1.0 79 1.0 80 1.0 
78 
79 
80 81 1.0 82 1.0 83 1.0 
81 
82 
83 84 1.0 85 1.0 86 1.0 
84 
85 
86 87 1.0 88 1.0 103 1.0 
87 
88 89 2.0 102 1.0 
89 
90 92 1.0 93 1.0 94 1.0 102 1.0 
91 95 1.0 96 1.0 97 1.0 102 1.0 
92 95 1.0 98 1.0 99 1.0 
93 
94 
95 100 1.0 101 1.0 
96 
97 
98 
99 
100 
101 
102 
103 104 1.0 
104 105 1.0 106 1.0 107 1.0 
105 
106 
107 108 1.0 109 1.0 110 1.0 
108 
109 
110 111 1.0 112 1.0 113 1.0 
111 
112 
113 114 1.0 115 1.0 132 1.0 
114 
115 116 2.0 129 1.0 
116 
117 119 1.0 120 1.0 121 1.0 129 1.0 
118 122 1.0 123 1.0 124 1.0 129 1.0 
119 122 1.0 125 1.0 126 1.0 
120 
121 
122 127 1.0 128 1.0 
123 
124 
125 
126 
127 
128 
129 
130 131 2.0 132 1.0 143 1.0 
131 
132 133 1.0 
133 
134 135 1.5 139 1.5 140 1.0 
135 136 1.5 145 1.0 
136 137 1.5 141 1.0 
137 138 1.5 146 1.0 
138 139 1.5 142 1.0 
139 143 1.0 
140 
141 
142 
143 144 1.0 
144 
145 148 1.0 149 1.0 150 1.0 
146 147 2.0 
147 
148 
149 
150 


