%mem=1GB
%nprocshared=12
#p geom=connect #p opt b3lyp m06-2x geom=connect scrf=(solvent=benzene) freq

00019

0 1
O   -4.332021  -1.430510  -4.708985
C   -5.374434  -2.218236  -5.272815
H   -5.008703  -2.653760  -6.202841
H   -6.223088  -1.586741  -5.540751
C   -5.818393  -3.338490  -4.316844
H   -6.222010  -2.897860  -3.404919
H   -6.643771  -3.888732  -4.769237
C   -4.682900  -4.318136  -3.973865
H   -4.388222  -4.850201  -4.879459
H   -3.793994  -3.767686  -3.663517
C   -5.076313  -5.342461  -2.883957
H   -5.921428  -5.912113  -3.271631
C   -3.947679  -6.357859  -2.574400
O   -2.798821  -6.130300  -2.963737
C   -3.257467  -8.496125  -1.539327
C   -5.564433  -7.839173  -1.354615
C   -4.052958  -9.680238  -0.987895
H   -2.582053  -8.096581  -0.781050
H   -2.657311  -8.785562  -2.403890
C   -5.331792  -9.051518  -0.450930
H   -6.218214  -8.103588  -2.187078
H   -6.033823  -7.026008  -0.799247
H   -4.296070 -10.368048  -1.799282
H   -3.505208 -10.241673  -0.229943
H   -6.174927  -9.743477  -0.445284
H   -5.170907  -8.717100   0.575219
N   -4.246945  -7.473618  -1.875931
O   -5.533494  -4.693882  -1.686150
C   -4.604516  -3.855329  -1.005842
H   -4.363435  -3.001455  -1.635815
H   -3.676664  -4.380843  -0.778651
C   -5.243476  -3.369380   0.298228
H   -6.167347  -2.837327   0.077036
H   -5.533843  -4.241451   0.885205
C   -4.306136  -2.494819   1.149249
H   -3.396693  -3.059890   1.358345
H   -4.770483  -2.351848   2.126743
C   -3.974292  -1.119672   0.517726
H   -4.380478  -1.044099  -0.489725
C   -4.443696   0.071305   1.356999
O   -3.738408   0.431047   2.303383
C   -5.935923   2.003648   1.629411
C   -6.588695   0.283511   0.082154
C   -7.084114   2.537968   0.776929
H   -6.255355   1.837580   2.659652
H   -5.102071   2.704893   1.644538
C   -7.737322   1.284479   0.211127
H   -6.933062  -0.725473   0.306434
H   -6.202134   0.287588  -0.933036
H   -7.777932   3.159797   1.344084
H   -6.685886   3.143309  -0.038867
H   -8.475712   0.905970   0.919763
H   -8.248849   1.463940  -0.735500
N   -5.568412   0.726613   1.028803
C   -1.670739  -1.487088  -0.399344
O   -1.944321  -2.365633  -1.212848
N   -2.544751  -0.921461   0.417120
H   -2.202422  -0.213437   1.054667
C    1.040141  -2.252944  -1.702593
C    2.349167  -2.432156  -2.201097
C    3.413234  -1.674592  -1.663933
C    3.182729  -0.732347  -0.636582
C    1.863271  -0.548749  -0.166990
C    0.794451  -1.286439  -0.703131
H    0.234224  -2.816978  -2.145665
H    4.408693  -1.811286  -2.062734
H    1.650184   0.196346   0.588081
N   -0.481236  -0.920452  -0.232523
H   -0.484853  -0.089944   0.357396
C    2.615983  -3.382418  -3.354044
C    4.301132   0.089028  -0.098935
O    5.422572   0.145675  -0.605697
F    3.616664  -4.203049  -3.041750
F    1.546119  -4.115051  -3.658536
F    2.961971  -2.673311  -4.425802
O    3.937320   0.766241   0.998797
C    4.768067   1.762283   1.561744
H    4.953010   2.535947   0.815075
H    5.730653   1.351382   1.869186
C    3.997231   2.335725   2.757168
H    2.942754   2.377891   2.486183
H    4.060254   1.650764   3.603177
C    4.447941   3.745634   3.170526
H    4.444979   4.392040   2.292587
H    5.484557   3.714345   3.508500
C    3.561026   4.345370   4.290216
H    3.741898   3.753374   5.187953
C    3.895170   5.817999   4.627995
O    4.604692   6.473947   3.860801
C    3.645615   7.733121   6.172666
C    2.521574   5.678020   6.722178
C    3.109519   7.843822   7.600620
H    3.109985   8.409501   5.504589
H    4.706861   7.983635   6.123572
C    2.034811   6.767839   7.678624
H    1.677750   5.175266   6.247750
H    3.103486   4.928991   7.261360
H    3.906745   7.616630   8.310121
H    2.730988   8.839648   7.834641
H    1.875243   6.400272   8.693109
H    1.086842   7.172231   7.320131
N    3.387526   6.355796   5.756774
O    2.172601   4.186255   3.971712
C    1.630072   4.985621   2.923625
H    2.351265   5.145125   2.122340
H    1.332320   5.967289   3.295059
C    0.435762   4.217827   2.357464
H    0.116953   4.680243   1.422739
H    0.771353   3.213604   2.099769
C   -0.760051   4.144775   3.322776
H   -1.285242   5.101275   3.325047
H   -0.391522   4.006510   4.340677
C   -1.730953   2.989501   3.011762
H   -1.178964   2.058943   3.128964
C   -2.957477   2.985277   3.929835
O   -3.843596   3.818079   3.714474
C   -4.185777   2.045034   5.848031
C   -2.088129   1.032293   5.253665
C   -3.769111   1.110406   6.983284
H   -5.049937   1.645619   5.314413
H   -4.450289   3.035430   6.222976
C   -2.745655   0.183128   6.343175
H   -1.163877   1.484069   5.617574
H   -1.851618   0.409394   4.389669
H   -3.293263   1.688064   7.777266
H   -4.612099   0.574781   7.421611
H   -2.027136  -0.215284   7.060574
H   -3.259142  -0.663348   5.884164
N   -3.049344   2.087847   4.931641
C   -1.779115   2.341999   0.645362
O   -0.798967   1.602304   0.745656
N   -2.227689   3.081273   1.647933
H   -3.059784   3.641649   1.537692
C   -1.105425   1.477338  -2.210121
C   -0.968577   0.615659  -3.318130
C   -2.111464  -0.016138  -3.851387
C   -3.393292   0.220358  -3.300081
C   -3.513937   1.105158  -2.207062
C   -2.373997   1.685434  -1.625893
H   -0.223849   1.935672  -1.786209
H   -1.985358  -0.690738  -4.685986
H   -4.483354   1.294262  -1.772647
N   -2.548301   2.426301  -0.439247
H   -3.395777   2.967829  -0.367049
C    0.398979   0.337382  -3.915945
C   -4.609016  -0.470110  -3.807152
O   -5.747772  -0.206506  -3.417485
F    0.568349   1.090640  -4.998631
F    0.496838  -0.942034  -4.266559
F    1.375089   0.606171  -3.052351

1 2 1.0 
2 3 1.0 4 1.0 5 1.0 
3 
4 
5 6 1.0 7 1.0 8 1.0 
6 
7 
8 9 1.0 10 1.0 11 1.0 
9 
10 
11 12 1.0 13 1.0 28 1.0 
12 
13 14 2.0 27 1.0 
14 
15 17 1.0 18 1.0 19 1.0 27 1.0 
16 20 1.0 21 1.0 22 1.0 27 1.0 
17 20 1.0 23 1.0 24 1.0 
18 
19 
20 25 1.0 26 1.0 
21 
22 
23 
24 
25 
26 
27 
28 29 1.0 
29 30 1.0 31 1.0 32 1.0 
30 
31 
32 33 1.0 34 1.0 35 1.0 
33 
34 
35 36 1.0 37 1.0 38 1.0 
36 
37 
38 39 1.0 40 1.0 57 1.0 
39 
40 41 2.0 54 1.0 
41 
42 44 1.0 45 1.0 46 1.0 54 1.0 
43 47 1.0 48 1.0 49 1.0 54 1.0 
44 47 1.0 50 1.0 51 1.0 
45 
46 
47 52 1.0 53 1.0 
48 
49 
50 
51 
52 
53 
54 
55 56 2.0 57 1.0 68 1.0 
56 
57 58 1.0 
58 
59 60 1.5 64 1.5 65 1.0 
60 61 1.5 70 1.0 
61 62 1.5 66 1.0 
62 63 1.5 71 1.0 
63 64 1.5 67 1.0 
64 68 1.0 
65 
66 
67 
68 69 1.0 
69 
70 73 1.0 74 1.0 75 1.0 
71 72 2.0 76 1.0 
72 
73 
74 
75 
76 77 1.0 
77 78 1.0 79 1.0 80 1.0 
78 
79 
80 81 1.0 82 1.0 83 1.0 
81 
82 
83 84 1.0 85 1.0 86 1.0 
84 
85 
86 87 1.0 88 1.0 103 1.0 
87 
88 89 2.0 102 1.0 
89 
90 92 1.0 93 1.0 94 1.0 102 1.0 
91 95 1.0 96 1.0 97 1.0 102 1.0 
92 95 1.0 98 1.0 99 1.0 
93 
94 
95 100 1.0 101 1.0 
96 
97 
98 
99 
100 
101 
102 
103 104 1.0 
104 105 1.0 106 1.0 107 1.0 
105 
106 
107 108 1.0 109 1.0 110 1.0 
108 
109 
110 111 1.0 112 1.0 113 1.0 
111 
112 
113 114 1.0 115 1.0 132 1.0 
114 
115 116 2.0 129 1.0 
116 
117 119 1.0 120 1.0 121 1.0 129 1.0 
118 122 1.0 123 1.0 124 1.0 129 1.0 
119 122 1.0 125 1.0 126 1.0 
120 
121 
122 127 1.0 128 1.0 
123 
124 
125 
126 
127 
128 
129 
130 131 2.0 132 1.0 143 1.0 
131 
132 133 1.0 
133 
134 135 1.5 139 1.5 140 1.0 
135 136 1.5 145 1.0 
136 137 1.5 141 1.0 
137 138 1.5 146 1.0 
138 139 1.5 142 1.0 
139 143 1.0 
140 
141 
142 
143 144 1.0 
144 
145 148 1.0 149 1.0 150 1.0 
146 147 2.0 
147 
148 
149 
150 


