%mem=1GB
%nprocshared=12
#p geom=connect #p opt b3lyp m06-2x geom=connect scrf=(solvent=benzene) freq

00027

0 1
O   -3.459293  -0.947136  -5.241759
C   -4.533515  -1.834891  -5.529395
H   -4.194353  -2.525204  -6.301867
H   -5.379770  -1.287857  -5.947616
C   -4.961851  -2.633323  -4.279801
H   -5.537233  -1.975183  -3.629570
H   -5.653617  -3.423643  -4.572064
C   -3.774099  -3.239873  -3.500996
H   -3.319874  -4.029118  -4.101561
H   -2.990195  -2.494711  -3.368361
C   -4.150739  -3.801116  -2.109492
H   -4.829133  -4.640413  -2.265545
C   -2.925113  -4.341588  -1.331506
O   -1.790568  -4.127092  -1.765814
C   -2.037329  -5.617512   0.594939
C   -4.420710  -5.374359   0.400169
C   -2.702552  -6.550143   1.607577
H   -1.505385  -4.816086   1.108086
H   -1.319751  -6.153938  -0.027907
C   -4.104294  -5.979058   1.768619
H   -4.926168  -6.105356  -0.232576
H   -5.075266  -4.508941   0.503980
H   -2.761837  -7.558491   1.195095
H   -2.156988  -6.607388   2.550328
H   -4.834826  -6.725803   2.082054
H   -4.091229  -5.189192   2.521778
N   -3.125349  -5.041662  -0.194616
O   -4.860459  -2.837926  -1.320176
C   -4.228671  -1.585294  -1.073613
H   -4.285978  -0.965967  -1.964581
H   -3.173137  -1.685458  -0.832016
C   -4.996005  -0.899072   0.057340
H   -4.786555   0.170288   0.031640
H   -6.065094  -0.980494  -0.142232
C   -4.680008  -1.480345   1.450257
H   -4.152551  -2.430055   1.361358
H   -5.617935  -1.761825   1.922296
C   -3.891166  -0.482600   2.335255
H   -4.422648   0.469421   2.319454
C   -3.792013  -0.870882   3.823291
O   -2.722010  -1.278665   4.281166
C   -4.885834  -1.161018   6.013610
C   -6.170874  -0.149146   4.251249
C   -6.217484  -0.693618   6.605134
H   -4.808950  -2.248863   6.052765
H   -4.039807  -0.747621   6.565834
C   -7.121967  -0.490649   5.397844
H   -6.580492  -0.505973   3.309977
H   -6.056862   0.929960   4.162374
H   -6.629404  -1.406161   7.320914
H   -6.083373   0.251906   7.131318
H   -7.641926  -1.423307   5.173335
H   -7.878801   0.277708   5.561068
N   -4.879206  -0.737607   4.613144
C   -1.667623  -1.055068   1.354301
O   -1.646137  -2.232274   1.708012
N   -2.598722  -0.178870   1.728842
H   -2.566498   0.739297   1.297552
C    0.483087  -2.471713  -0.341041
C    1.604154  -2.958215  -1.044425
C    2.595147  -2.054479  -1.485557
C    2.462332  -0.668655  -1.244956
C    1.313111  -0.202821  -0.566598
C    0.328588  -1.089408  -0.106248
H   -0.268468  -3.177499  -0.029673
H    3.450689  -2.429891  -2.029254
H    1.167310   0.851500  -0.399263
N   -0.804923  -0.506847   0.500983
H   -0.944942   0.469057   0.301614
C    1.703952  -4.435877  -1.373292
C    3.510561   0.278135  -1.716585
O    4.537774  -0.067456  -2.301234
F    1.104196  -5.178796  -0.444497
F    1.110779  -4.648329  -2.544547
F    2.976382  -4.820749  -1.460405
O    3.207455   1.552463  -1.421537
C    4.114088   2.600661  -1.700348
H    4.144896   2.768399  -2.777696
H    5.122723   2.329594  -1.384121
C    3.656160   3.878214  -0.973395
H    4.299989   4.690748  -1.311289
H    2.647821   4.153624  -1.284474
C    3.747782   3.807498   0.568078
H    3.856056   4.819519   0.958502
H    4.669536   3.295129   0.847955
C    2.538353   3.124900   1.255319
H    2.409255   2.156319   0.790197
C    2.757773   2.838607   2.763559
O    3.543609   3.545039   3.400173
C    2.081762   1.621921   4.807229
C    1.179516   0.883531   2.712521
C    1.322357   0.315529   5.041523
H    1.584100   2.452245   5.310780
H    3.102698   1.563141   5.188802
C    0.408974   0.186469   3.832616
H    0.512980   1.338263   1.989623
H    1.806101   0.161128   2.188297
H    2.025540  -0.518623   5.057315
H    0.776743   0.305870   5.985979
H    0.173356  -0.853343   3.602686
H   -0.531099   0.698292   4.032876
N    2.050393   1.856161   3.364434
O    1.330215   3.871172   1.032755
C    1.233236   5.170292   1.629814
H    1.478888   5.919432   0.876309
H    1.944134   5.327601   2.439796
C   -0.183225   5.418068   2.180295
H   -0.157486   6.352782   2.741888
H   -0.886692   5.602122   1.366904
C   -0.691626   4.291384   3.113674
H   -1.192760   4.761201   3.960770
H    0.148820   3.766406   3.561429
C   -1.657417   3.285053   2.443290
H   -1.565420   2.332898   2.956928
C   -3.133445   3.711596   2.546237
O   -3.635309   4.381629   1.640562
C   -5.195137   3.807074   3.901738
C   -3.259272   2.739984   4.853231
C   -5.392248   3.745138   5.416115
H   -5.868631   3.122021   3.386183
H   -5.395109   4.811678   3.524043
C   -4.370881   2.725661   5.901543
H   -2.412634   3.313381   5.230679
H   -2.909705   1.729008   4.646512
H   -5.166930   4.719872   5.851539
H   -6.413706   3.486277   5.698048
H   -4.003213   2.949129   6.903842
H   -4.823994   1.739877   5.940824
N   -3.817153   3.386656   3.663095
C   -1.757601   2.489508   0.049122
O   -2.867124   1.966929   0.079695
N   -1.160375   3.012828   1.105211
H   -0.222287   3.379119   0.962254
C    0.089264   1.678088  -2.989989
C    0.075975   0.960945  -4.199377
C   -1.146588   0.472991  -4.702170
C   -2.354105   0.706055  -4.001593
C   -2.320510   1.411422  -2.776382
C   -1.089073   1.869182  -2.249919
H    1.031989   2.033064  -2.605574
H   -1.143634  -0.096304  -5.620822
H   -3.249319   1.561970  -2.244879
N   -0.932124   2.492478  -0.991918
H   -0.042702   2.946502  -0.841707
C    1.389381   0.638824  -4.885523
C   -3.643086   0.152771  -4.488598
O   -4.745924   0.589427  -4.155974
F    1.229840   0.501126  -6.200279
F    1.849770  -0.503155  -4.381827
F    2.292672   1.592192  -4.661171

1 2 1.0 
2 3 1.0 4 1.0 5 1.0 
3 
4 
5 6 1.0 7 1.0 8 1.0 
6 
7 
8 9 1.0 10 1.0 11 1.0 
9 
10 
11 12 1.0 13 1.0 28 1.0 
12 
13 14 2.0 27 1.0 
14 
15 17 1.0 18 1.0 19 1.0 27 1.0 
16 20 1.0 21 1.0 22 1.0 27 1.0 
17 20 1.0 23 1.0 24 1.0 
18 
19 
20 25 1.0 26 1.0 
21 
22 
23 
24 
25 
26 
27 
28 29 1.0 
29 30 1.0 31 1.0 32 1.0 
30 
31 
32 33 1.0 34 1.0 35 1.0 
33 
34 
35 36 1.0 37 1.0 38 1.0 
36 
37 
38 39 1.0 40 1.0 57 1.0 
39 
40 41 2.0 54 1.0 
41 
42 44 1.0 45 1.0 46 1.0 54 1.0 
43 47 1.0 48 1.0 49 1.0 54 1.0 
44 47 1.0 50 1.0 51 1.0 
45 
46 
47 52 1.0 53 1.0 
48 
49 
50 
51 
52 
53 
54 
55 56 2.0 57 1.0 68 1.0 
56 
57 58 1.0 
58 
59 60 1.5 64 1.5 65 1.0 
60 61 1.5 70 1.0 
61 62 1.5 66 1.0 
62 63 1.5 71 1.0 
63 64 1.5 67 1.0 
64 68 1.0 
65 
66 
67 
68 69 1.0 
69 
70 73 1.0 74 1.0 75 1.0 
71 72 2.0 76 1.0 
72 
73 
74 
75 
76 77 1.0 
77 78 1.0 79 1.0 80 1.0 
78 
79 
80 81 1.0 82 1.0 83 1.0 
81 
82 
83 84 1.0 85 1.0 86 1.0 
84 
85 
86 87 1.0 88 1.0 103 1.0 
87 
88 89 2.0 102 1.0 
89 
90 92 1.0 93 1.0 94 1.0 102 1.0 
91 95 1.0 96 1.0 97 1.0 102 1.0 
92 95 1.0 98 1.0 99 1.0 
93 
94 
95 100 1.0 101 1.0 
96 
97 
98 
99 
100 
101 
102 
103 104 1.0 
104 105 1.0 106 1.0 107 1.0 
105 
106 
107 108 1.0 109 1.0 110 1.0 
108 
109 
110 111 1.0 112 1.0 113 1.0 
111 
112 
113 114 1.0 115 1.0 132 1.0 
114 
115 116 2.0 129 1.0 
116 
117 119 1.0 120 1.0 121 1.0 129 1.0 
118 122 1.0 123 1.0 124 1.0 129 1.0 
119 122 1.0 125 1.0 126 1.0 
120 
121 
122 127 1.0 128 1.0 
123 
124 
125 
126 
127 
128 
129 
130 131 2.0 132 1.0 143 1.0 
131 
132 133 1.0 
133 
134 135 1.5 139 1.5 140 1.0 
135 136 1.5 145 1.0 
136 137 1.5 141 1.0 
137 138 1.5 146 1.0 
138 139 1.5 142 1.0 
139 143 1.0 
140 
141 
142 
143 144 1.0 
144 
145 148 1.0 149 1.0 150 1.0 
146 147 2.0 
147 
148 
149 
150 


