%mem=1GB
%nprocshared=12
#p geom=connect #p opt b3lyp m06-2x geom=connect scrf=(solvent=benzene) freq

00021

0 1
O   -4.042630  -0.989813  -4.307210
C   -5.288010  -1.434353  -4.831443
H   -5.145038  -1.669453  -5.886266
H   -6.030728  -0.635771  -4.793171
C   -5.797910  -2.681212  -4.093316
H   -6.020022  -2.418264  -3.058971
H   -6.746649  -2.991752  -4.531641
C   -4.800609  -3.853685  -4.149042
H   -4.618703  -4.120334  -5.190964
H   -3.833199  -3.528427  -3.764299
C   -5.282076  -5.111873  -3.386600
H   -6.153797  -5.490378  -3.921019
C   -4.226165  -6.245070  -3.359469
O   -3.047520  -5.988159  -3.620236
C   -3.709209  -8.638862  -3.004036
C   -5.981830  -7.911189  -2.698992
C   -4.596430  -9.876272  -2.859787
H   -3.049983  -8.532366  -2.140986
H   -3.085103  -8.696110  -3.897677
C   -5.862305  -9.350965  -2.195846
H   -6.606722  -7.870595  -3.592428
H   -6.431977  -7.269514  -1.940077
H   -4.838276 -10.270986  -3.847855
H   -4.119014 -10.675279  -2.291110
H   -6.742425  -9.953615  -2.423738
H   -5.732760  -9.350215  -1.112381
N   -4.621688  -7.497066  -3.044925
O   -5.726838  -4.795857  -2.059671
C   -4.770520  -4.228858  -1.170556
H   -4.360307  -3.326293  -1.613773
H   -3.938076  -4.905513  -0.973638
C   -5.491493  -3.883528   0.136042
H   -6.464543  -3.452589  -0.086709
H   -5.701163  -4.809267   0.672843
C   -4.695959  -2.933220   1.046079
H   -3.743899  -3.406596   1.285824
H   -5.211993  -2.883828   2.007022
C   -4.505677  -1.501713   0.455014
H   -4.861519  -1.429414  -0.570527
C   -5.217298  -0.464911   1.340803
O   -4.642798  -0.072147   2.360758
C   -7.169769   0.946911   1.841766
C   -7.249916  -0.396792  -0.143545
C   -8.415474   1.334956   1.045488
H   -7.446043   0.472431   2.784812
H   -6.557039   1.818291   2.072268
C   -8.653043   0.141580   0.131791
H   -7.274346  -1.468816  -0.321070
H   -6.842716   0.085969  -1.028920
H   -9.271905   1.560347   1.682175
H   -8.205234   2.220989   0.444337
H   -9.239541  -0.612861   0.658554
H   -9.191581   0.405057  -0.779423
N   -6.446711  -0.018551   1.016872
C   -2.041479  -1.723530  -0.016745
O   -2.090986  -2.714079  -0.742043
N   -3.106530  -1.104012   0.471315
H   -2.941229  -0.241446   0.990608
C    0.885726  -2.584199  -0.515635
C    2.249500  -2.712686  -0.860065
C    3.150121  -1.674120  -0.539701
C    2.696858  -0.500484   0.101846
C    1.337381  -0.401085   0.466578
C    0.423243  -1.411435   0.125414
H    0.208845  -3.378954  -0.787113
H    4.185890  -1.767547  -0.834912
H    0.972609   0.488190   0.960019
N   -0.930670  -1.121221   0.401572
H   -1.100036  -0.280477   0.940441
C    2.749041  -3.925377  -1.625385
C    3.625090   0.635102   0.327205
O    4.850936   0.548201   0.243581
F    1.748364  -4.693336  -2.053147
F    3.538357  -4.651326  -0.837577
F    3.450769  -3.526088  -2.684592
O    2.963161   1.775771   0.596640
C    3.654917   2.978372   0.880420
H    2.969678   3.795313   0.654014
H    4.524186   3.110795   0.234289
C    4.046595   3.022298   2.364071
H    3.304334   2.476875   2.945462
H    4.984306   2.487535   2.518929
C    4.154287   4.459073   2.898420
H    3.301003   5.045518   2.557068
H    5.032738   4.936629   2.461799
C    4.240160   4.515229   4.440106
H    5.089198   3.896277   4.731611
C    4.503741   5.938730   4.990809
O    4.301219   6.916938   4.266098
C    5.232448   7.374441   6.869624
C    5.192341   4.992969   7.209561
C    5.927217   7.064738   8.196549
H    4.292183   7.901662   7.038966
H    5.856339   7.998942   6.227640
C    5.431677   5.671184   8.559797
H    6.080288   4.440597   6.898330
H    4.358805   4.291331   7.267402
H    7.007905   7.041424   8.047687
H    5.714697   7.805440   8.968518
H    6.132331   5.122806   9.190774
H    4.488252   5.749151   9.102512
N    4.943973   6.077524   6.259306
O    3.074233   3.931498   5.041835
C    1.816206   4.579717   4.852058
H    1.895024   5.556775   4.374211
H    1.376474   4.750054   5.835351
C    0.905783   3.661714   4.028523
H    1.346882   3.507134   3.046490
H    0.856101   2.682034   4.505258
C   -0.511204   4.224397   3.856069
H   -0.464550   5.205504   3.379312
H   -0.943268   4.391120   4.844656
C   -1.427685   3.280565   3.056246
H   -1.422841   2.294474   3.519471
C   -2.844427   3.890808   3.001671
O   -3.042790   4.845763   2.244749
C   -5.161929   3.972823   3.837715
C   -3.719022   2.244338   4.685001
C   -5.868409   3.295672   5.012686
H   -5.676438   3.769873   2.898337
H   -5.128618   5.056004   3.968213
C   -5.140839   1.968781   5.178545
H   -3.063017   2.499814   5.518544
H   -3.313806   1.362360   4.187082
H   -5.738817   3.897798   5.913273
H   -6.939513   3.172874   4.847083
H   -5.167313   1.596268   6.203226
H   -5.608538   1.215341   4.543520
N   -3.822549   3.391295   3.783850
C   -1.351496   2.257617   0.839066
O   -2.139801   1.370711   1.164131
N   -0.908575   3.167177   1.697396
H   -0.303579   3.904546   1.375373
C    0.016693   1.001888  -2.162002
C   -0.173412   0.014431  -3.148561
C   -1.481949  -0.357151  -3.515186
C   -2.605310   0.230126  -2.884346
C   -2.396851   1.176087  -1.854277
C   -1.085284   1.536282  -1.472675
H    1.018847   1.275957  -1.867467
H   -1.602533  -1.120634  -4.270422
H   -3.246021   1.599101  -1.333908
N   -0.827117   2.387033  -0.378977
H   -0.092882   3.067501  -0.499906
C    1.015167  -0.709006  -3.752737
C   -3.991885  -0.161429  -3.247553
O   -4.986506   0.244092  -2.647587
F    1.100510  -0.436488  -5.051699
F    0.853861  -2.019532  -3.593725
F    2.156530  -0.361295  -3.160859

1 2 1.0 
2 3 1.0 4 1.0 5 1.0 
3 
4 
5 6 1.0 7 1.0 8 1.0 
6 
7 
8 9 1.0 10 1.0 11 1.0 
9 
10 
11 12 1.0 13 1.0 28 1.0 
12 
13 14 2.0 27 1.0 
14 
15 17 1.0 18 1.0 19 1.0 27 1.0 
16 20 1.0 21 1.0 22 1.0 27 1.0 
17 20 1.0 23 1.0 24 1.0 
18 
19 
20 25 1.0 26 1.0 
21 
22 
23 
24 
25 
26 
27 
28 29 1.0 
29 30 1.0 31 1.0 32 1.0 
30 
31 
32 33 1.0 34 1.0 35 1.0 
33 
34 
35 36 1.0 37 1.0 38 1.0 
36 
37 
38 39 1.0 40 1.0 57 1.0 
39 
40 41 2.0 54 1.0 
41 
42 44 1.0 45 1.0 46 1.0 54 1.0 
43 47 1.0 48 1.0 49 1.0 54 1.0 
44 47 1.0 50 1.0 51 1.0 
45 
46 
47 52 1.0 53 1.0 
48 
49 
50 
51 
52 
53 
54 
55 56 2.0 57 1.0 68 1.0 
56 
57 58 1.0 
58 
59 60 1.5 64 1.5 65 1.0 
60 61 1.5 70 1.0 
61 62 1.5 66 1.0 
62 63 1.5 71 1.0 
63 64 1.5 67 1.0 
64 68 1.0 
65 
66 
67 
68 69 1.0 
69 
70 73 1.0 74 1.0 75 1.0 
71 72 2.0 76 1.0 
72 
73 
74 
75 
76 77 1.0 
77 78 1.0 79 1.0 80 1.0 
78 
79 
80 81 1.0 82 1.0 83 1.0 
81 
82 
83 84 1.0 85 1.0 86 1.0 
84 
85 
86 87 1.0 88 1.0 103 1.0 
87 
88 89 2.0 102 1.0 
89 
90 92 1.0 93 1.0 94 1.0 102 1.0 
91 95 1.0 96 1.0 97 1.0 102 1.0 
92 95 1.0 98 1.0 99 1.0 
93 
94 
95 100 1.0 101 1.0 
96 
97 
98 
99 
100 
101 
102 
103 104 1.0 
104 105 1.0 106 1.0 107 1.0 
105 
106 
107 108 1.0 109 1.0 110 1.0 
108 
109 
110 111 1.0 112 1.0 113 1.0 
111 
112 
113 114 1.0 115 1.0 132 1.0 
114 
115 116 2.0 129 1.0 
116 
117 119 1.0 120 1.0 121 1.0 129 1.0 
118 122 1.0 123 1.0 124 1.0 129 1.0 
119 122 1.0 125 1.0 126 1.0 
120 
121 
122 127 1.0 128 1.0 
123 
124 
125 
126 
127 
128 
129 
130 131 2.0 132 1.0 143 1.0 
131 
132 133 1.0 
133 
134 135 1.5 139 1.5 140 1.0 
135 136 1.5 145 1.0 
136 137 1.5 141 1.0 
137 138 1.5 146 1.0 
138 139 1.5 142 1.0 
139 143 1.0 
140 
141 
142 
143 144 1.0 
144 
145 148 1.0 149 1.0 150 1.0 
146 147 2.0 
147 
148 
149 
150 


