%mem=1GB
%nprocshared=12
#p geom=connect #p opt b3lyp m06-2x geom=connect scrf=(solvent=benzene) freq

00020

0 1
O   -1.771709  -1.676249  -4.493564
C   -0.872109  -2.693712  -4.899661
H    0.154994  -2.524221  -4.572596
H   -0.859587  -2.707972  -5.989619
C   -1.417660  -4.026516  -4.372396
H   -2.500073  -4.046175  -4.510469
H   -1.029120  -4.843501  -4.981254
C   -1.054293  -4.293660  -2.901777
H   -0.111158  -4.840091  -2.897993
H   -0.842087  -3.367820  -2.370561
C   -2.131938  -5.110007  -2.152555
H   -2.454245  -5.898491  -2.833260
C   -1.588057  -5.821215  -0.887457
O   -0.546879  -5.415001  -0.365186
C   -1.851558  -7.595844   0.815811
C   -3.549652  -7.383064  -0.875331
C   -2.788437  -8.800412   0.918403
H   -1.954988  -6.949403   1.688946
H   -0.806771  -7.904609   0.749115
C   -4.052319  -8.351338   0.196932
H   -3.371392  -7.911877  -1.812858
H   -4.280239  -6.594578  -1.063042
H   -2.350353  -9.651034   0.393923
H   -2.973690  -9.105730   1.949026
H   -4.622675  -9.183479  -0.217756
H   -4.701432  -7.819644   0.894536
N   -2.280475  -6.858315  -0.371368
O   -3.294239  -4.311177  -1.859964
C   -3.144524  -3.268493  -0.895978
H   -2.565566  -2.454113  -1.325261
H   -2.619762  -3.622791  -0.011455
C   -4.521140  -2.762004  -0.452965
H   -4.985780  -2.175086  -1.244273
H   -5.161432  -3.634375  -0.317079
C   -4.510046  -1.989584   0.883925
H   -3.935920  -2.531609   1.636125
H   -5.532914  -2.003845   1.263877
C   -4.078638  -0.507850   0.808453
H   -4.678740  -0.070527   0.018935
C   -4.314683   0.268828   2.112983
O   -3.562435   0.069381   3.069284
C   -5.680896   1.850207   3.423761
C   -6.237652   1.545513   1.118886
C   -6.603922   2.990452   3.001333
H   -6.210193   1.156652   4.078975
H   -4.812602   2.206235   3.971210
C   -7.287027   2.453138   1.755026
H   -6.706039   0.694364   0.621776
H   -5.671867   2.114047   0.388499
H   -7.308890   3.274704   3.783540
H   -6.022019   3.874718   2.744094
H   -8.158456   1.862133   2.041510
H   -7.628343   3.242825   1.084400
N   -5.335147   1.145205   2.194596
C   -1.581930  -0.865373   0.733165
O   -1.500455  -1.860353   1.450336
N   -2.715170  -0.280100   0.364931
H   -2.595219   0.532343  -0.222041
C    1.049648  -2.076647  -0.159979
C    2.347400  -2.500548  -0.508429
C    3.344406  -1.538558  -0.775006
C    3.059182  -0.156583  -0.697523
C    1.745162   0.252773  -0.368236
C    0.745206  -0.698651  -0.080143
H    0.302361  -2.833664   0.028328
H    4.341307  -1.867101  -1.032727
H    1.499495   1.305672  -0.318805
N   -0.543331  -0.208466   0.228525
H   -0.725095   0.762756  -0.023008
C    2.647122  -3.986035  -0.601238
C    4.158878   0.821370  -0.929752
O    5.289226   0.497210  -1.298950
F    2.023677  -4.490569  -1.662090
F    3.952260  -4.222479  -0.727308
F    2.215826  -4.604462   0.495155
O    3.806690   2.083289  -0.640912
C    4.796403   3.096255  -0.566744
H    5.088295   3.378843  -1.578902
H    5.691408   2.722903  -0.066018
C    4.256624   4.321491   0.190951
H    4.999549   5.114618   0.103257
H    3.364277   4.700843  -0.307818
C    3.978298   4.094676   1.695623
H    3.873784   5.068218   2.175637
H    4.848737   3.631812   2.162338
C    2.718537   3.246107   1.990351
H    2.881716   2.259766   1.567867
C    2.443532   3.007093   3.496334
O    2.895175   3.801135   4.325686
C    1.170782   1.795971   5.233601
C    1.137439   0.913345   3.003004
C    0.318319   0.524776   5.226747
H    0.568611   2.663033   5.506844
H    1.991460   1.723477   5.949209
C   -0.039918   0.308517   3.763323
H    0.827494   1.277738   2.027290
H    1.915178   0.164985   2.844091
H    0.913748  -0.316723   5.584076
H   -0.561349   0.602792   5.867070
H   -0.203424  -0.742376   3.522880
H   -0.955515   0.848639   3.521813
N    1.665352   1.966253   3.868721
O    1.575537   3.817879   1.336969
C    1.094980   5.088076   1.793390
H    1.463274   5.868739   1.127117
H    1.436467   5.354825   2.792974
C   -0.438722   5.047187   1.780757
H   -0.841728   5.987796   2.157434
H   -0.767398   4.964889   0.746119
C   -0.954505   3.866160   2.624851
H   -0.628039   4.009684   3.653951
H   -0.450061   2.964927   2.307066
C   -2.461286   3.545560   2.584852
H   -2.615553   2.545722   2.981873
C   -3.265660   4.548230   3.416834
O   -3.858432   5.463399   2.836830
C   -4.130821   5.263642   5.609184
C   -2.677639   3.349365   5.552076
C   -3.808739   4.854515   7.046944
H   -5.187331   5.100109   5.389518
H   -3.911177   6.318391   5.434314
C   -3.342478   3.410723   6.926019
H   -1.618188   3.584923   5.646522
H   -2.765078   2.346716   5.133238
H   -2.994287   5.471298   7.430143
H   -4.658650   4.970958   7.720584
H   -2.673441   3.111049   7.733722
H   -4.206052   2.743863   6.945261
N   -3.329997   4.390900   4.754220
C   -2.554630   2.895653   0.177061
O   -1.466696   2.327567   0.145038
N   -3.016215   3.539038   1.238204
H   -3.874289   4.067658   1.163908
C   -4.840812   1.490100  -2.181234
C   -5.047732   0.341140  -2.963598
C   -3.937558  -0.383652  -3.439623
C   -2.619081   0.034627  -3.138240
C   -2.427687   1.183301  -2.343215
C   -3.540177   1.875150  -1.809057
H   -5.707401   2.013194  -1.806098
H   -4.111746  -1.285750  -4.008282
H   -1.416635   1.485086  -2.106892
N   -3.425805   2.885659  -0.828853
H   -4.244745   3.460134  -0.703008
C   -6.465047  -0.147038  -3.183671
C   -1.442625  -0.764508  -3.567797
O   -0.310506  -0.620030  -3.106092
F   -7.205559   0.828001  -3.704368
F   -6.975509  -0.490310  -2.002539
F   -6.511928  -1.204169  -3.992014

1 2 1.0 
2 3 1.0 4 1.0 5 1.0 
3 
4 
5 6 1.0 7 1.0 8 1.0 
6 
7 
8 9 1.0 10 1.0 11 1.0 
9 
10 
11 12 1.0 13 1.0 28 1.0 
12 
13 14 2.0 27 1.0 
14 
15 17 1.0 18 1.0 19 1.0 27 1.0 
16 20 1.0 21 1.0 22 1.0 27 1.0 
17 20 1.0 23 1.0 24 1.0 
18 
19 
20 25 1.0 26 1.0 
21 
22 
23 
24 
25 
26 
27 
28 29 1.0 
29 30 1.0 31 1.0 32 1.0 
30 
31 
32 33 1.0 34 1.0 35 1.0 
33 
34 
35 36 1.0 37 1.0 38 1.0 
36 
37 
38 39 1.0 40 1.0 57 1.0 
39 
40 41 2.0 54 1.0 
41 
42 44 1.0 45 1.0 46 1.0 54 1.0 
43 47 1.0 48 1.0 49 1.0 54 1.0 
44 47 1.0 50 1.0 51 1.0 
45 
46 
47 52 1.0 53 1.0 
48 
49 
50 
51 
52 
53 
54 
55 56 2.0 57 1.0 68 1.0 
56 
57 58 1.0 
58 
59 60 1.5 64 1.5 65 1.0 
60 61 1.5 70 1.0 
61 62 1.5 66 1.0 
62 63 1.5 71 1.0 
63 64 1.5 67 1.0 
64 68 1.0 
65 
66 
67 
68 69 1.0 
69 
70 73 1.0 74 1.0 75 1.0 
71 72 2.0 76 1.0 
72 
73 
74 
75 
76 77 1.0 
77 78 1.0 79 1.0 80 1.0 
78 
79 
80 81 1.0 82 1.0 83 1.0 
81 
82 
83 84 1.0 85 1.0 86 1.0 
84 
85 
86 87 1.0 88 1.0 103 1.0 
87 
88 89 2.0 102 1.0 
89 
90 92 1.0 93 1.0 94 1.0 102 1.0 
91 95 1.0 96 1.0 97 1.0 102 1.0 
92 95 1.0 98 1.0 99 1.0 
93 
94 
95 100 1.0 101 1.0 
96 
97 
98 
99 
100 
101 
102 
103 104 1.0 
104 105 1.0 106 1.0 107 1.0 
105 
106 
107 108 1.0 109 1.0 110 1.0 
108 
109 
110 111 1.0 112 1.0 113 1.0 
111 
112 
113 114 1.0 115 1.0 132 1.0 
114 
115 116 2.0 129 1.0 
116 
117 119 1.0 120 1.0 121 1.0 129 1.0 
118 122 1.0 123 1.0 124 1.0 129 1.0 
119 122 1.0 125 1.0 126 1.0 
120 
121 
122 127 1.0 128 1.0 
123 
124 
125 
126 
127 
128 
129 
130 131 2.0 132 1.0 143 1.0 
131 
132 133 1.0 
133 
134 135 1.5 139 1.5 140 1.0 
135 136 1.5 145 1.0 
136 137 1.5 141 1.0 
137 138 1.5 146 1.0 
138 139 1.5 142 1.0 
139 143 1.0 
140 
141 
142 
143 144 1.0 
144 
145 148 1.0 149 1.0 150 1.0 
146 147 2.0 
147 
148 
149 
150 


